@<TRIPOS>MOLECULE
tmp/2pswA00.pdb
 160 157 0 0 0
SMALL
GASTEIGER

@<TRIPOS>ATOM
      1  N         32.0570  338.3340  -91.0930 N.3    26  ILE26      -0.1231
      2  CA        33.3720  337.9530  -91.5470 C.3    26  ILE26       0.1692
      3  C         33.7860  336.5330  -91.1250 C.2    26  ILE26       0.2592
      4  O         34.4050  335.7970  -91.9120 O.2    26  ILE26      -0.2718
      5  CB        34.3960  339.0010  -91.0380 C.3    26  ILE26       0.0266
      6  CG1       34.0090  340.3870  -91.5490 C.3    26  ILE26       0.0019
      7  CG2       35.8220  338.6000  -91.4260 C.3    26  ILE26       0.0020
      8  CD1       34.5480  341.5600  -90.7240 C.3    26  ILE26       0.0001
      9  N         33.4810  336.1670  -89.8770 N.am   27  PHE27      -0.1976
     10  CA        33.9700  334.9220  -89.2730 C.3    27  PHE27       0.1639
     11  C         32.9140  333.8420  -89.2040 C.2    27  PHE27       0.2290
     12  O         31.7560  334.1160  -88.8430 O.2    27  PHE27      -0.2864
     13  CB        34.5740  335.1960  -87.8940 C.3    27  PHE27       0.0560
     14  CG        35.7030  336.1780  -87.9390 C.ar   27  PHE27      -0.0200
     15  CD1       36.9470  335.8010  -88.4260 C.ar   27  PHE27      -0.0042
     16  CD2       35.4960  337.4990  -87.5790 C.ar   27  PHE27      -0.0042
     17  CE1       37.9890  336.7190  -88.5160 C.ar   27  PHE27      -0.0003
     18  CE2       36.5310  338.4430  -87.6700 C.ar   27  PHE27      -0.0003
     19  CZ        37.7950  338.0270  -88.1450 C.ar   27  PHE27      -0.0000
     20  N         40.8440  338.4970  -86.6580 N.3    76  LEU76      -0.1231
     21  CA        41.3990  339.6410  -87.3910 C.3    76  LEU76       0.1693
     22  C         40.8880  339.5450  -88.8050 C.2    76  LEU76       0.2593
     23  O         41.1160  338.5610  -89.4580 O.2    76  LEU76      -0.2718
     24  CB        42.9210  339.6270  -87.3660 C.3    76  LEU76       0.0284
     25  CG        43.7150  340.7960  -87.9650 C.3    76  LEU76       0.0019
     26  CD1       45.1820  340.8300  -87.4320 C.3    76  LEU76       0.0001
     27  CD2       43.7420  340.6630  -89.4740 C.3    76  LEU76       0.0001
     28  N         40.1680  340.5450  -89.2800 N.am   77  GLY77      -0.1942
     29  CA        39.4960  340.3760  -90.5670 C.3    77  GLY77       0.2014
     30  C         38.8140  341.6450  -90.9780 C.2    77  GLY77       0.2639
     31  O         38.6810  342.5400  -90.1620 O.2    77  GLY77      -0.2714
     32  N         38.4650  341.7470  -92.2600 N.am   78  CYS78      -0.1967
     33  CA        37.5730  342.7940  -92.7590 C.3    78  CYS78       0.1712
     34  C         36.6120  342.2710  -93.8250 C.2    78  CYS78       0.2296
     35  O         36.7710  341.1630  -94.3400 O.2    78  CYS78      -0.2864
     36  CB        38.3230  344.0300  -93.2510 C.3    78  CYS78       0.0983
     37  SG        39.2760  343.8430  -94.7750 S.3    78  CYS78      -0.0798
     38  N         38.9070  343.9890  -99.0710 N.3    83  ARG83      -0.1231
     39  CA        40.1250  343.2410  -98.8640 C.3    83  ARG83       0.1694
     40  C         41.1750  343.6720  -99.9000 C.2    83  ARG83       0.2592
     41  O         40.8280  344.2490 -100.9250 O.2    83  ARG83      -0.2718
     42  CB        39.8540  341.7440  -98.8740 C.3    83  ARG83       0.0321
     43  CG        39.1690  341.2680  -97.5900 C.3    83  ARG83       0.0489
     44  CD        38.8510  339.8070  -97.5830 C.3    83  ARG83       0.2205
     45  NE        37.8600  339.5790  -96.5330 N.pl3  83  ARG83      -0.0865
     46  CZ        37.1040  338.4940  -96.4360 C.cat  83  ARG83       0.5346
     47  NH1       37.2660  337.5010  -97.3150 N.pl3  83  ARG83       0.1354
     48  NH2       36.1830  338.3980  -95.4500 N.pl3  83  ARG83       0.1354
     49  N         42.4480  343.4150  -99.5900 N.am   84  ARG84      -0.1966
     50  CA        43.5890  343.7370 -100.4760 C.3    84  ARG84       0.1729
     51  C         43.7440  345.2180 -100.5900 C.2    84  ARG84       0.2616
     52  O         44.1430  345.7230 -101.6310 O.2    84  ARG84      -0.2715
     53  CB        43.4490  343.1070 -101.8650 C.3    84  ARG84       0.0348
     54  CG        43.6410  341.5830 -101.9380 C.3    84  ARG84       0.0492
     55  CD        44.8670  341.0810 -101.1460 C.3    84  ARG84       0.2205
     56  NE        46.1370  341.0170 -101.8980 N.pl3  84  ARG84      -0.0865
     57  CZ        46.3820  340.1560 -102.8880 C.cat  84  ARG84       0.5346
     58  NH1       45.4210  339.3320 -103.2830 N.pl3  84  ARG84       0.1354
     59  NH2       47.5690  340.1280 -103.4980 N.pl3  84  ARG84       0.1354
     60  N         43.4330  345.9200  -99.5030 N.am   85  LEU85      -0.1963
     61  CA        43.5720  347.3670  -99.4730 C.3    85  LEU85       0.1728
     62  C         44.5100  347.8150  -98.3510 C.2    85  LEU85       0.2617
     63  O         44.7250  348.9960  -98.1330 O.2    85  LEU85      -0.2715
     64  CB        42.2140  348.0350  -99.3490 C.3    85  LEU85       0.0311
     65  CG        41.2900  348.0470 -100.5660 C.3    85  LEU85       0.0022
     66  CD1       39.9950  348.7150 -100.1410 C.3    85  LEU85       0.0001
     67  CD2       41.9650  348.8050 -101.7250 C.3    85  LEU85       0.0001
     68  N         45.0970  346.8500  -97.6690 N.am   86  GLY86      -0.1940
     69  CA        46.0200  347.1420  -96.5980 C.3    86  GLY86       0.2014
     70  C         45.3550  347.1720  -95.2350 C.2    86  GLY86       0.2639
     71  O         46.0070  347.5100  -94.2510 O.2    86  GLY86      -0.2714
     72  N         44.0830  346.7850  -95.1310 N.am   87  ILE87      -0.1963
     73  CA        43.4500  346.9420  -93.8370 C.3    87  ILE87       0.1727
     74  C         43.9690  345.8640  -92.9150 C.2    87  ILE87       0.2617
     75  O         44.1810  346.1190  -91.7580 O.2    87  ILE87      -0.2715
     76  CB        41.9100  346.9920  -93.9170 C.3    87  ILE87       0.0290
     77  CG1       41.4870  348.2220  -94.7220 C.3    87  ILE87       0.0022
     78  CG2       41.2540  347.0240  -92.5080 C.3    87  ILE87       0.0023
     79  CD1       40.1790  348.0390  -95.4470 C.3    87  ILE87       0.0001
     80  N         44.2130  344.6640  -93.4250 N.am   88  GLY88      -0.1940
     81  CA        44.7010  343.5800  -92.5660 C.3    88  GLY88       0.2014
     82  C         46.0550  343.9390  -92.0020 C.2    88  GLY88       0.2639
     83  O         46.3070  343.7810  -90.8030 O.2    88  GLY88      -0.2714
     84  N         46.9250  344.4390  -92.8810 N.am   89  THR89      -0.1950
     85  CA        48.2650  344.8540  -92.5190 C.3    89  THR89       0.1897
     86  C         48.2630  345.8960  -91.3990 C.2    89  THR89       0.2313
     87  O         48.9900  345.7910  -90.4620 O.2    89  THR89      -0.2863
     88  CB        48.9760  345.4460  -93.7540 C.3    89  THR89       0.1794
     89  OG1       49.0220  344.4540  -94.7850 O.3    89  THR89      -0.2208
     90  CG2       50.4070  345.8690  -93.4070 C.3    89  THR89       0.0378
     91  N         41.6130  328.2270  -95.7100 N.3   115  ASN115     -0.1240
     92  CA        41.8050  329.6680  -95.7660 C.3   115  ASN115      0.1653
     93  C         43.1380  330.0260  -96.3940 C.2   115  ASN115      0.2266
     94  O         44.0540  330.5150  -95.7130 O.2   115  ASN115     -0.2867
     95  CB        41.7350  330.2700  -94.3580 C.3   115  ASN115      0.1155
     96  CG        41.2830  331.7220  -94.3630 C.2   115  ASN115      0.2627
     97  OD1       41.5160  332.4650  -95.3250 O.2   115  ASN115     -0.2716
     98  ND2       40.6220  332.1330  -93.2770 N.am  115  ASN115     -0.0877
     99  N         43.9970  332.4330  -98.4320 N.3   117  SER117     -0.1202
    100  CA        44.3120  333.8340  -98.3990 C.3   117  SER117      0.2020
    101  C         44.8470  334.2720  -97.0180 C.2   117  SER117      0.2618
    102  O         45.8000  335.0650  -96.9340 O.2   117  SER117     -0.2717
    103  CB        43.0920  334.6380  -98.8460 C.3   117  SER117      0.2103
    104  OG        42.2620  335.0000  -97.7680 O.3   117  SER117     -0.2182
    105  N         44.2680  333.7290  -95.9470 N.am  118  ALA118     -0.1979
    106  CA        44.7800  333.9800  -94.6080 C.3   118  ALA118      0.1597
    107  C         46.1950  333.4270  -94.4120 C.2   118  ALA118      0.2287
    108  O         47.0090  334.0960  -93.8180 O.2   118  ALA118     -0.2864
    109  CB        43.8510  333.4280  -93.5320 C.3   118  ALA118      0.0319
    110  N         48.5220  332.8640  -96.8120 N.3   120  ASP120     -0.1225
    111  CA        49.3100  333.8220  -97.5960 C.3   120  ASP120      0.1805
    112  C         49.5960  335.1240  -96.8410 C.2   120  ASP120      0.2598
    113  O         50.7380  335.5740  -96.7900 O.2   120  ASP120     -0.2718
    114  CB        48.5530  334.1990  -98.8540 C.3   120  ASP120      0.1424
    115  CG        48.9340  333.3610 -100.0560 C.2   120  ASP120      0.3668
    116  OD1       50.1210  332.9320 -100.1630 O.co2 120  ASP120     -0.2456
    117  OD2       48.0430  333.2030 -100.9330 O.co2 120  ASP120     -0.2456
    118  N         48.5400  335.7330  -96.2870 N.am  121  PHE121     -0.1962
    119  CA        48.6490  336.9580  -95.4860 C.3   121  PHE121      0.1771
    120  C         49.6340  336.8000  -94.3060 C.2   121  PHE121      0.2619
    121  O         50.6200  337.5440  -94.1690 O.2   121  PHE121     -0.2715
    122  CB        47.2460  337.3380  -94.9690 C.3   121  PHE121      0.0574
    123  CG        47.2420  338.4930  -93.9910 C.ar  121  PHE121     -0.0200
    124  CD1       47.4430  339.7920  -94.4290 C.ar  121  PHE121     -0.0042
    125  CD2       47.0470  338.2750  -92.6490 C.ar  121  PHE121     -0.0042
    126  CE1       47.4570  340.8420  -93.5490 C.ar  121  PHE121     -0.0003
    127  CE2       47.0430  339.3350  -91.7470 C.ar  121  PHE121     -0.0003
    128  CZ        47.2590  340.6220  -92.2070 C.ar  121  PHE121     -0.0000
    129  N         49.3850  335.8150  -93.4560 N.am  122  TYR122     -0.1974
    130  CA        50.2170  335.6780  -92.2650 C.3   122  TYR122      0.1639
    131  C         51.6290  335.2460  -92.5800 C.2   122  TYR122      0.2290
    132  O         52.5720  335.6170  -91.8710 O.2   122  TYR122     -0.2864
    133  CB        49.5880  334.7340  -91.2570 C.3   122  TYR122      0.0560
    134  CG        48.4760  335.3930  -90.5190 C.ar  122  TYR122     -0.0198
    135  CD1       48.7310  336.3400  -89.5450 C.ar  122  TYR122     -0.0009
    136  CD2       47.1570  335.0760  -90.8080 C.ar  122  TYR122     -0.0009
    137  CE1       47.6640  336.9740  -88.8510 C.ar  122  TYR122      0.0417
    138  CE2       46.0890  335.6960  -90.1270 C.ar  122  TYR122      0.0417
    139  CZ        46.3610  336.6400  -89.1560 C.ar  122  TYR122      0.1957
    140  OH        45.3260  337.2510  -88.5040 O.3   122  TYR122     -0.2866
    141  N         53.4380  336.1190  -95.1160 N.3   124  LYS124     -0.1231
    142  CA        54.0770  337.3480  -95.5530 C.3   124  LYS124      0.1693
    143  C         54.7170  338.0780  -94.3790 C.2   124  LYS124      0.2592
    144  O         55.7940  338.6380  -94.5220 O.2   124  LYS124     -0.2718
    145  CB        53.0780  338.2220  -96.3020 C.3   124  LYS124      0.0285
    146  CG        53.5970  339.6060  -96.6230 C.3   124  LYS124      0.0035
    147  CD        52.8850  340.2690  -97.7960 C.3   124  LYS124      0.0206
    148  CE        53.8110  340.3680  -99.0450 C.3   124  LYS124      0.1093
    149  NZ        54.0870  339.0350  -99.7220 N.3   124  LYS124     -0.1314
    150  N         54.1090  338.0010  -93.1970 N.am  125  PHE125     -0.1976
    151  CA        54.6540  338.6540  -92.0070 C.3   125  PHE125      0.1639
    152  C         55.5690  337.7570  -91.1870 C.2   125  PHE125      0.2290
    153  O         55.8880  338.0990  -90.0720 O.2   125  PHE125     -0.2864
    154  CB        53.5410  339.1640  -91.0910 C.3   125  PHE125      0.0560
    155  CG        52.7510  340.3180  -91.6770 C.ar  125  PHE125     -0.0200
    156  CD1       53.0120  341.6260  -91.2850 C.ar  125  PHE125     -0.0042
    157  CD2       51.7560  340.0880  -92.6330 C.ar  125  PHE125     -0.0042
    158  CE1       52.2940  342.6900  -91.8300 C.ar  125  PHE125     -0.0003
    159  CE2       51.0270  341.1560  -93.1870 C.ar  125  PHE125     -0.0003
    160  CZ        51.2890  342.4390  -92.7890 C.ar  125  PHE125     -0.0000
@<TRIPOS>BOND
     1    59    57    1
     2    58    57    1
     3    57    56    2
     4    54    53    1
     5    54    55    1
     6    56    55    1
     7    53    50    1
     8    67    65    1
     9    52    51    2
    10   117   115   ar
    11    41    40    2
    12    51    50    1
    13    51    60   am
    14    65    66    1
    15    65    64    1
    16    50    49    1
    17   116   115   ar
    18   115   114    1
    19    40    49   am
    20    40    39    1
    21   149   148    1
    22    60    61    1
    23    61    64    1
    24    61    62    1
    25    38    39    1
    26   148   147    1
    27    42    39    1
    28    42    43    1
    29   114   111    1
    30   103   100    1
    31   103   104    1
    32    99   100    1
    33   100   101    1
    34    62    63    2
    35    62    68   am
    36   147   146    1
    37    68    69    1
    38   111   112    1
    39   111   110    1
    40    43    44    1
    41    44    45    1
    42    47    46    1
    43   101   102    2
    44   101   105   am
    45   112   113    2
    46   112   118   am
    47   146   145    1
    48    69    70    1
    49    45    46    2
    50    46    48    1
    51    93    92    1
    52    93    94    2
    53   145   142    1
    54   118   119    1
    55   105   106    1
    56    92    91    1
    57    92    95    1
    58   142   141    1
    59   142   143    1
    60   119   122    1
    61   119   120    1
    62    79    77    1
    63    97    96    2
    64    70    72   am
    65    70    71    2
    66    72    73    1
    67   122   123    1
    68    89    88    1
    69    37    36    1
    70    77    76    1
    71   106   107    1
    72   106   109    1
    73   144   143    2
    74   124   123   ar
    75   124   126   ar
    76   107   108    2
    77   143   150   am
    78    96    95    1
    79    96    98   am
    80    35    34    2
    81   120   121    2
    82   120   129   am
    83   123   125   ar
    84    76    73    1
    85    76    78    1
    86    73    74    1
    87    34    33    1
    88    88    90    1
    89    88    85    1
    90   126   128   ar
    91   129   130    1
    92    80    74   am
    93    80    81    1
    94    36    33    1
    95   150   151    1
    96   159   160   ar
    97   159   157   ar
    98    74    75    2
    99    84    85    1
   100    84    82   am
   101   160   158   ar
   102    33    32    1
   103   125   127   ar
   104   157   155   ar
   105   131   130    1
   106   131   132    2
   107    81    82    1
   108    85    86    1
   109   130   133    1
   110    32    30   am
   111   128   127   ar
   112   151   152    1
   113   151   154    1
   114    82    83    2
   115     4     3    2
   116   158   156   ar
   117   155   156   ar
   118   155   154    1
   119     6     5    1
   120     6     8    1
   121     2     3    1
   122     2     1    1
   123     2     5    1
   124     7     5    1
   125    86    87    2
   126   133   134    1
   127   152   153    2
   128     3     9   am
   129    30    29    1
   130    30    31    2
   131   136   134   ar
   132   136   138   ar
   133    29    28    1
   134   134   135   ar
   135   138   139   ar
   136     9    10    1
   137   135   137   ar
   138    27    25    1
   139    23    22    2
   140    28    22   am
   141    10    11    1
   142    10    13    1
   143    11    12    2
   144   139   137   ar
   145   139   140    1
   146    22    21    1
   147    17    15   ar
   148    17    19   ar
   149    15    14   ar
   150    19    18   ar
   151    25    26    1
   152    25    24    1
   153    14    13    1
   154    14    16   ar
   155    18    16   ar
   156    21    24    1
   157    21    20    1
