@<TRIPOS>MOLECULE
tmp/2psxA00.pdb
 195 192 0 0 0
SMALL
GASTEIGER

@<TRIPOS>ATOM
      1  N         11.5580  -11.8730   15.2980 N.3    27  CYS27      -0.1235
      2  CA        12.6000  -11.1040   15.9860 C.3    27  CYS27       0.1677
      3  C         13.9870  -11.1300   15.3510 C.2    27  CYS27       0.2270
      4  O         14.3790  -12.0860   14.6780 O.2    27  CYS27      -0.2867
      5  CB        12.7560  -11.5910   17.4150 C.3    27  CYS27       0.0956
      6  SG        11.3350  -11.2420   18.4770 S.3    27  CYS27      -0.0801
      7  N         11.1880  -10.1810   25.3020 N.3    42  HIS42      -0.1241
      8  CA         9.8780  -10.6480   24.8530 C.3    42  HIS42       0.1621
      9  C          9.9650  -11.5220   23.6140 C.2    42  HIS42       0.2264
     10  O          8.9400  -11.9300   23.0780 O.2    42  HIS42      -0.2867
     11  CB         8.9150   -9.4800   24.5910 C.3    42  HIS42       0.0745
     12  CG         9.2320   -8.6760   23.3670 C.ar   42  HIS42       0.0817
     13  ND1       10.0010   -7.5310   23.4080 N.ar   42  HIS42      -0.2268
     14  CD2        8.8550   -8.8250   22.0740 C.ar   42  HIS42       0.1154
     15  CE1       10.0790   -7.0090   22.1950 C.ar   42  HIS42       0.1986
     16  NE2        9.3910   -7.7750   21.3680 N.ar   42  HIS42      -0.2212
     17  N         12.9270   -7.8660   33.7450 N.3    79  TYR79      -0.1241
     18  CA        11.8830   -7.8710   32.7230 C.3    79  TYR79       0.1605
     19  C         10.5630   -8.4000   33.2630 C.2    79  TYR79       0.2264
     20  O         10.4880   -9.5420   33.7190 O.2    79  TYR79      -0.2867
     21  CB        12.2930   -8.7180   31.5230 C.3    79  TYR79       0.0534
     22  CG        11.2620   -8.6710   30.4300 C.ar   79  TYR79      -0.0201
     23  CD1       11.0120   -7.4830   29.7430 C.ar   79  TYR79      -0.0009
     24  CD2       10.5090   -9.8000   30.0970 C.ar   79  TYR79      -0.0009
     25  CE1       10.0500   -7.4180   28.7580 C.ar   79  TYR79       0.0417
     26  CE2        9.5330   -9.7380   29.1060 C.ar   79  TYR79       0.0417
     27  CZ         9.3140   -8.5340   28.4430 C.ar   79  TYR79       0.1957
     28  OH         8.3400   -8.4150   27.4780 O.3    79  TYR79      -0.2866
     29  N          6.6050   -9.3500   32.5740 N.3    81  HIS81      -0.1241
     30  CA         5.6410   -9.7310   31.5540 C.3    81  HIS81       0.1621
     31  C          4.7500   -8.5900   31.0480 C.2    81  HIS81       0.2264
     32  O          4.4520   -8.5310   29.8560 O.2    81  HIS81      -0.2867
     33  CB         4.7850  -10.8990   32.0640 C.3    81  HIS81       0.0745
     34  CG         4.7060  -10.9930   33.5590 C.ar   81  HIS81       0.0817
     35  ND1        3.6220  -10.5430   34.2820 N.ar   81  HIS81      -0.2268
     36  CD2        5.5820  -11.4870   34.4680 C.ar   81  HIS81       0.1154
     37  CE1        3.8310  -10.7570   35.5710 C.ar   81  HIS81       0.1986
     38  NE2        5.0140  -11.3310   35.7110 N.ar   81  HIS81      -0.2212
     39  N          7.4370   -2.9200   29.8280 N.3    84  HIS84      -0.1241
     40  CA         8.4540   -3.0340   28.8090 C.3    84  HIS84       0.1621
     41  C          9.8640   -2.7960   29.3400 C.2    84  HIS84       0.2264
     42  O         10.8080   -2.7400   28.5600 O.2    84  HIS84      -0.2867
     43  CB         8.1570   -2.0290   27.6990 C.3    84  HIS84       0.0745
     44  CG         6.8090   -2.1920   27.0840 C.ar   84  HIS84       0.0817
     45  ND1        6.0000   -1.1190   26.7780 N.ar   84  HIS84      -0.2268
     46  CD2        6.1430   -3.2980   26.6780 C.ar   84  HIS84       0.1154
     47  CE1        4.8910   -1.5590   26.2100 C.ar   84  HIS84       0.1986
     48  NE2        4.9530   -2.8780   26.1370 N.ar   84  HIS84      -0.2212
     49  N         14.0110   -4.7600   28.7500 N.3    87  ASP87      -0.1239
     50  CA        13.6940   -5.6060   27.6160 C.3    87  ASP87       0.1674
     51  C         14.9110   -6.0800   26.8180 C.2    87  ASP87       0.2266
     52  O         15.1090   -5.6810   25.6670 O.2    87  ASP87      -0.2867
     53  CB        12.6840   -4.8930   26.7130 C.3    87  ASP87       0.1410
     54  CG        12.1190   -5.8030   25.6490 C.2    87  ASP87       0.3668
     55  OD1       12.2340   -7.0390   25.8200 O.co2  87  ASP87      -0.2456
     56  OD2       11.5560   -5.3120   24.6470 O.co2  87  ASP87      -0.2456
     57  N          4.8680    9.0040   25.6020 N.3   155  TYR155     -0.1241
     58  CA         4.4180    7.8020   26.2780 C.3   155  TYR155      0.1605
     59  C          4.4690    8.0270   27.7780 C.2   155  TYR155      0.2264
     60  O          5.3730    7.5550   28.4580 O.2   155  TYR155     -0.2867
     61  CB         5.3160    6.6300   25.8980 C.3   155  TYR155      0.0534
     62  CG         5.3380    6.3320   24.4170 C.ar  155  TYR155     -0.0201
     63  CD1        4.2820    5.6560   23.8090 C.ar  155  TYR155     -0.0009
     64  CD2        6.4170    6.7180   23.6240 C.ar  155  TYR155     -0.0009
     65  CE1        4.3030    5.3610   22.4460 C.ar  155  TYR155      0.0417
     66  CE2        6.4460    6.4340   22.2570 C.ar  155  TYR155      0.0417
     67  CZ         5.3920    5.7520   21.6760 C.ar  155  TYR155      0.1957
     68  OH         5.4320    5.4400   20.3330 O.3   155  TYR155     -0.2866
     69  N          4.7210    5.2810   30.9880 N.3   158  GLN158     -0.1245
     70  CA         5.1040    3.9830   30.4270 C.3   158  GLN158      0.1566
     71  C          6.5620    3.9800   29.9450 C.2   158  GLN158      0.2260
     72  O          7.1920    2.9320   29.7830 O.2   158  GLN158     -0.2867
     73  CB         4.1360    3.5930   29.2930 C.3   158  GLN158      0.0367
     74  CG         3.8570    4.6890   28.2630 C.3   158  GLN158      0.0905
     75  CD         2.6650    4.3670   27.3590 C.2   158  GLN158      0.2608
     76  OE1        2.6200    3.3170   26.7150 O.2   158  GLN158     -0.2717
     77  NE2        1.6980    5.2800   27.3070 N.am  158  GLN158     -0.0878
     78  N         10.2870    4.6290   10.8600 N.3   173  ASP173     -0.1225
     79  CA        10.2280    3.9950   12.1740 C.3   173  ASP173      0.1805
     80  C         10.4030    2.4890   12.0340 C.2   173  ASP173      0.2598
     81  O         10.3630    1.9460   10.9220 O.2   173  ASP173     -0.2718
     82  CB         8.8790    4.3350   12.8460 C.3   173  ASP173      0.1424
     83  CG         8.6760    3.6460   14.2020 C.2   173  ASP173      0.3668
     84  OD1        9.6390    3.5230   14.9890 O.co2 173  ASP173     -0.2456
     85  OD2        7.5270    3.2440   14.4920 O.co2 173  ASP173     -0.2456
     86  N         10.6340    1.8310   13.1650 N.am  174  SER174     -0.1938
     87  CA        10.7940    0.3880   13.1790 C.3   174  SER174      0.2055
     88  C          9.3860   -0.1870   13.2910 C.2   174  SER174      0.2643
     89  O          8.4410    0.5530   13.5540 O.2   174  SER174     -0.2714
     90  CB        11.7000   -0.0470   14.3540 C.3   174  SER174      0.2130
     91  OG        11.3990    0.6280   15.5770 O.3   174  SER174     -0.2179
     92  N          9.2230   -1.4880   13.0700 N.am  175  CYS175     -0.1953
     93  CA         7.8920   -2.0620   13.1510 C.3   175  CYS175      0.1843
     94  C          7.9330   -3.5410   13.5380 C.2   175  CYS175      0.2625
     95  O          8.9980   -4.0840   13.8760 O.2   175  CYS175     -0.2714
     96  CB         7.1830   -1.8670   11.8030 C.3   175  CYS175      0.0997
     97  SG         5.3450   -1.7870   11.8420 S.3   175  CYS175     -0.0797
     98  N          6.7680   -4.1790   13.5170 N.am  176  GLN176     -0.1963
     99  CA         6.6670   -5.5840   13.8740 C.3   176  GLN176      0.1733
    100  C          7.6340   -6.4020   13.0340 C.2   176  GLN176      0.2616
    101  O          7.7630   -6.1920   11.8280 O.2   176  GLN176     -0.2715
    102  CB         5.2240   -6.0730   13.6890 C.3   176  GLN176      0.0408
    103  CG         4.2960   -5.7790   14.8900 C.3   176  GLN176      0.0908
    104  CD         4.1700   -4.2900   15.2250 C.2   176  GLN176      0.2608
    105  OE1        3.8430   -3.4750   14.3620 O.2   176  GLN176     -0.2717
    106  NE2        4.4210   -3.9360   16.4880 N.am  176  GLN176     -0.0878
    107  N          8.3290   -7.3110   13.6920 N.am  177  GLY177     -0.1955
    108  CA         9.2820   -8.1460   12.9930 C.3   177  GLY177      0.1869
    109  C         10.7150   -7.6920   13.1810 C.2   177  GLY177      0.2309
    110  O         11.6410   -8.4500   12.8960 O.2   177  GLY177     -0.2863
    111  N         11.8220   -6.4040   16.2480 N.3   179  SER179     -0.1217
    112  CA        12.1550   -6.5720   17.6710 C.3   179  SER179      0.1889
    113  C         13.4290   -7.3850   17.8810 C.2   179  SER179      0.2288
    114  O         13.6560   -8.3940   17.2070 O.2   179  SER179     -0.2866
    115  CB        11.0180   -7.2690   18.4180 C.3   179  SER179      0.2089
    116  OG         9.9680   -6.3310   18.6930 O.3   179  SER179     -0.2183
    117  N         15.4460   -2.9540   19.2410 N.3   193  VAL193     -0.1231
    118  CA        14.0660   -2.6700   18.8920 C.3   193  VAL193      0.1692
    119  C         13.2420   -3.3090   20.0030 C.2   193  VAL193      0.2593
    120  O         13.3630   -4.5120   20.2630 O.2   193  VAL193     -0.2718
    121  CB        13.6870   -3.3160   17.5160 C.3   193  VAL193      0.0266
    122  CG1       12.1590   -3.2530   17.2540 C.3   193  VAL193      0.0020
    123  CG2       14.4460   -2.6050   16.4160 C.3   193  VAL193      0.0020
    124  N         12.4370   -2.4970   20.6830 N.am  194  SER194     -0.1938
    125  CA        11.6120   -3.0200   21.7560 C.3   194  SER194      0.2055
    126  C         10.1290   -2.9000   21.4540 C.2   194  SER194      0.2643
    127  O          9.4400   -3.9100   21.2880 O.2   194  SER194     -0.2714
    128  CB        11.9190   -2.3100   23.0740 C.3   194  SER194      0.2130
    129  OG        11.2330   -2.9530   24.1340 O.3   194  SER194     -0.2179
    130  N          9.6350   -1.6740   21.3830 N.am  195  TRP195     -0.1959
    131  CA         8.2180   -1.4540   21.1130 C.3   195  TRP195      0.1771
    132  C          7.9650   -0.0410   20.5980 C.2   195  TRP195      0.2620
    133  O          8.8880    0.7680   20.4710 O.2   195  TRP195     -0.2715
    134  CB         7.3930   -1.6860   22.3890 C.3   195  TRP195      0.0590
    135  CG         7.7720   -0.7900   23.5540 C.ar  195  TRP195      0.0006
    136  CD1        8.8720   -0.9030   24.3550 C.ar  195  TRP195      0.0946
    137  CD2        7.0590    0.3720   24.0170 C.ar  195  TRP195      0.0152
    138  NE1        8.8940    0.1120   25.2900 N.ar  195  TRP195     -0.2442
    139  CE2        7.7930    0.9090   25.1010 C.ar  195  TRP195      0.0810
    140  CE3        5.8740    1.0080   23.6220 C.ar  195  TRP195      0.0012
    141  CZ2        7.3830    2.0560   25.7920 C.ar  195  TRP195      0.0191
    142  CZ3        5.4660    2.1520   24.3150 C.ar  195  TRP195      0.0001
    143  CH2        6.2240    2.6610   25.3830 C.ar  195  TRP195      0.0015
    144  N          6.7080    0.2340   20.2990 N.am  196  GLY196     -0.1940
    145  CA         6.3260    1.5400   19.8010 C.3   196  GLY196      0.2014
    146  C          4.8230    1.5810   19.6350 C.2   196  GLY196      0.2639
    147  O          4.1340    0.6240   19.9970 O.2   196  GLY196     -0.2714
    148  N          4.3110    2.6790   19.0860 N.am  197  ASP197     -0.1957
    149  CA         2.8770    2.8120   18.8740 C.3   197  ASP197      0.1840
    150  C          2.4590    1.9950   17.6590 C.2   197  ASP197      0.2622
    151  O          3.3070    1.5480   16.8850 O.2   197  ASP197     -0.2715
    152  CB         2.4990    4.2860   18.6900 C.3   197  ASP197      0.1450
    153  CG         1.2600    4.6650   19.4770 C.2   197  ASP197      0.3671
    154  OD1        1.1590    5.8380   19.9050 O.co2 197  ASP197     -0.2456
    155  OD2        0.3850    3.7920   19.6660 O.co2 197  ASP197     -0.2456
    156  N          1.1470    1.8000   17.5100 N.am  198  TYR198     -0.1974
    157  CA         0.5830    1.0210   16.4060 C.3   198  TYR198      0.1639
    158  C         -0.6680    1.6840   15.8220 C.2   198  TYR198      0.2290
    159  O         -1.5580    2.1000   16.5600 O.2   198  TYR198     -0.2864
    160  CB         0.2130   -0.3780   16.8910 C.3   198  TYR198      0.0560
    161  CG        -0.4240   -1.2460   15.8260 C.ar  198  TYR198     -0.0198
    162  CD1        0.3530   -1.8880   14.8630 C.ar  198  TYR198     -0.0009
    163  CD2       -1.8080   -1.4260   15.7810 C.ar  198  TYR198     -0.0009
    164  CE1       -0.2330   -2.6930   13.8790 C.ar  198  TYR198      0.0417
    165  CE2       -2.4020   -2.2240   14.8040 C.ar  198  TYR198      0.0417
    166  CZ        -1.6080   -2.8550   13.8560 C.ar  198  TYR198      0.1957
    167  OH        -2.1990   -3.6460   12.8910 O.3   198  TYR198     -0.2866
    168  N          2.6360    1.4660   13.1600 N.3   200  CYS200     -0.1235
    169  CA         3.9640    2.0700   13.1600 C.3   200  CYS200      0.1677
    170  C          4.0370    3.3110   12.3080 C.2   200  CYS200      0.2270
    171  O          3.2110    3.5090   11.4300 O.2   200  CYS200     -0.2867
    172  CB         4.9820    1.0940   12.6070 C.3   200  CYS200      0.0956
    173  SG         4.9270   -0.5300   13.3790 S.3   200  CYS200     -0.0801
    174  N          5.1850   10.0280   17.2790 N.3   205  ARG205     -0.1231
    175  CA         5.1340    8.7760   18.0350 C.3   205  ARG205      0.1679
    176  C          6.3800    7.9580   17.7000 C.2   205  ARG205      0.2434
    177  O          6.3390    7.0430   16.8750 O.2   205  ARG205     -0.2733
    178  CB         3.8770    7.9870   17.6650 C.3   205  ARG205      0.0321
    179  CG         2.6150    8.8340   17.6210 C.3   205  ARG205      0.0489
    180  CD         2.3450    9.4890   18.9630 C.3   205  ARG205      0.2205
    181  NE         2.0730    8.5010   20.0030 N.pl3 205  ARG205     -0.0865
    182  CZ         1.9140    8.8030   21.2880 C.cat 205  ARG205      0.5346
    183  NH1        2.0120   10.0660   21.6920 N.pl3 205  ARG205      0.1354
    184  NH2        1.6520    7.8490   22.1730 N.pl3 205  ARG205      0.1354
    185  N          7.5060    8.2770   18.3440 N.am  206  PRO206     -0.2718
    186  CA         8.7720    7.5800   18.1120 C.3   206  PRO206      0.1535
    187  C          8.8280    6.1430   18.6390 C.2   206  PRO206      0.2599
    188  O          8.0830    5.7740   19.5470 O.2   206  PRO206     -0.2715
    189  CB         9.7810    8.4810   18.8070 C.3   206  PRO206      0.0310
    190  CG         9.0020    8.9640   19.9990 C.3   206  PRO206      0.0237
    191  CD         7.6590    9.3090   19.3910 C.3   206  PRO206      0.0939
    192  N          9.7090    5.3340   18.0570 N.am  207  GLY207     -0.1955
    193  CA         9.8680    3.9630   18.5160 C.3   207  GLY207      0.1869
    194  C         10.6150    3.9660   19.8400 C.2   207  GLY207      0.2309
    195  O         11.3680    4.8980   20.1230 O.2   207  GLY207     -0.2863
@<TRIPOS>BOND
     1    78    79    1
     2    81    80    2
     3   171   170    2
     4    96    97    1
     5    96    93    1
     6   101   100    2
     7    97   173    1
     8    80    79    1
     9    80    86   am
    10    79    82    1
    11   170   169    1
    12   172   169    1
    13   172   173    1
    14    82    83    1
    15   167   166    1
    16   110   109    2
    17   108   109    1
    18   108   107    1
    19   100   107   am
    20   100    99    1
    21    92    93    1
    22    92    88   am
    23    93    94    1
    24   169   168    1
    25    86    87    1
    26    87    88    1
    27    87    90    1
    28    88    89    2
    29    98    94   am
    30    98    99    1
    31    94    95    2
    32   102    99    1
    33   102   103    1
    34   166   164   ar
    35   166   165   ar
    36   164   162   ar
    37    83    85   ar
    38    83    84   ar
    39    90    91    1
    40   105   104    2
    41     4     3    2
    42   165   163   ar
    43   162   161   ar
    44   103   104    1
    45   104   106   am
    46     1     2    1
    47     3     2    1
    48   163   161   ar
    49   158   157    1
    50   158   159    2
    51   161   160    1
    52     2     5    1
    53   111   112    1
    54   157   160    1
    55   157   156    1
    56   123   121    1
    57   177   176    2
    58   151   150    2
    59   114   113    2
    60   122   121    1
    61   174   175    1
    62     5     6    1
    63   156   150   am
    64   121   118    1
    65   179   178    1
    66   179   180    1
    67   150   149    1
    68   178   175    1
    69   112   113    1
    70   112   115    1
    71   176   175    1
    72   176   185   am
    73   192   193    1
    74   192   187   am
    75   186   185    1
    76   186   187    1
    77   186   189    1
    78   185   191    1
    79   115   116    1
    80   193   194    1
    81   187   188    2
    82   152   149    1
    83   152   153    1
    84   189   190    1
    85   149   148    1
    86   118   117    1
    87   118   119    1
    88   180   181    1
    89   148   146   am
    90   191   190    1
    91   153   155   ar
    92   153   154   ar
    93   146   145    1
    94   146   147    2
    95   145   144    1
    96   194   195    2
    97   119   120    2
    98   119   124   am
    99   181   182    2
   100   144   132   am
   101    68    67    1
   102   133   132    2
   103   132   131    1
   104   124   125    1
   105   131   130    1
   106   131   134    1
   107   127   126    2
   108   182   183    1
   109   182   184    1
   110    16    14   ar
   111    16    15   ar
   112   130   126   am
   113   126   125    1
   114    67    66   ar
   115    67    65   ar
   116   125   128    1
   117    14    12   ar
   118    15    13   ar
   119    66    64   ar
   120   134   135    1
   121    65    63   ar
   122   128   129    1
   123    10     9    2
   124    12    13   ar
   125    12    11    1
   126   135   137   ar
   127   135   136   ar
   128     9     8    1
   129   140   137   ar
   130   140   142   ar
   131    64    62   ar
   132    63    62   ar
   133   137   139   ar
   134   142   143   ar
   135   136   138   ar
   136    62    61    1
   137    11     8    1
   138    56    54   ar
   139     8     7    1
   140   139   138   ar
   141   139   141   ar
   142   143   141   ar
   143    57    58    1
   144    54    55   ar
   145    54    53    1
   146    52    51    2
   147    61    58    1
   148    48    47   ar
   149    48    46   ar
   150    47    45   ar
   151    58    59    1
   152    46    44   ar
   153    53    50    1
   154    76    75    2
   155    45    44   ar
   156    51    50    1
   157    44    43    1
   158    77    75   am
   159    75    74    1
   160    28    27    1
   161    50    49    1
   162    43    40    1
   163    59    60    2
   164    74    73    1
   165    27    25   ar
   166    27    26   ar
   167    42    41    2
   168    25    23   ar
   169    40    41    1
   170    40    39    1
   171    26    24   ar
   172    73    70    1
   173    23    22   ar
   174    72    71    2
   175    32    31    2
   176    71    70    1
   177    24    22   ar
   178    70    69    1
   179    22    21    1
   180    31    30    1
   181    21    18    1
   182    30    33    1
   183    30    29    1
   184    33    34    1
   185    18    19    1
   186    18    17    1
   187    19    20    2
   188    34    35   ar
   189    34    36   ar
   190    35    37   ar
   191    36    38   ar
   192    37    38   ar
