@<TRIPOS>MOLECULE
tmp/2ptfA00.pdb
 138 135 0 0 0
SMALL
GASTEIGER

@<TRIPOS>ATOM
      1  N         15.8860   28.1520   26.6880 N.3    21  GLU21      -0.1245
      2  CA        16.4750   28.5920   25.4250 C.3    21  GLU21       0.1567
      3  C         15.7460   27.8460   24.3120 C.2    21  GLU21       0.2260
      4  O         15.6820   26.6050   24.3040 O.2    21  GLU21      -0.2867
      5  CB        17.9910   28.3140   25.3420 C.3    21  GLU21       0.0388
      6  CG        18.8410   28.8230   26.5270 C.3    21  GLU21       0.1160
      7  CD        18.5450   30.2820   26.9430 C.2    21  GLU21       0.3649
      8  OE1       18.2100   31.1160   26.0710 O.co2  21  GLU21      -0.2457
      9  OE2       18.6570   30.5920   28.1620 O.co2  21  GLU21      -0.2457
     10  N         10.7330   33.3270    9.8370 N.3    34  ASN34      -0.1225
     11  CA        11.9670   33.8050   10.4920 C.3    34  ASN34       0.1785
     12  C         12.1930   32.9340   11.7200 C.2    34  ASN34       0.2597
     13  O         11.2130   32.4970   12.3400 O.2    34  ASN34      -0.2718
     14  CB        11.8970   35.2880   10.8820 C.3    34  ASN34       0.1169
     15  CG        13.2680   35.8680   11.3410 C.2    34  ASN34       0.2627
     16  OD1       14.0820   36.2740   10.5220 O.2    34  ASN34      -0.2716
     17  ND2       13.4850   35.9630   12.6620 N.am   34  ASN34      -0.0877
     18  N         13.4570   32.6410   12.0440 N.am   35  ALA35      -0.1966
     19  CA        13.7620   31.8250   13.2220 C.3    35  ALA35       0.1728
     20  C         14.8930   32.4760   13.9690 C.2    35  ALA35       0.2616
     21  O         15.8190   32.9880   13.3660 O.2    35  ALA35      -0.2715
     22  CB        14.1560   30.3850   12.8260 C.3    35  ALA35       0.0334
     23  N         14.8380   32.4440   15.2900 N.am   36  ALA36      -0.1964
     24  CA        15.9450   32.9790   16.0660 C.3    36  ALA36       0.1713
     25  C         15.8830   32.3960   17.4430 C.2    36  ALA36       0.2458
     26  O         14.7790   32.0950   17.9240 O.2    36  ALA36      -0.2730
     27  CB        15.8640   34.5720   16.1280 C.3    36  ALA36       0.0333
     28  N         17.0480   32.2020   18.0890 N.am   37  PRO37      -0.2716
     29  CA        17.0370   31.7890   19.5050 C.3    37  PRO37       0.1536
     30  C         16.4590   32.8870   20.3720 C.2    37  PRO37       0.2598
     31  O         16.9160   34.0370   20.2940 O.2    37  PRO37      -0.2715
     32  CB        18.5260   31.5980   19.8550 C.3    37  PRO37       0.0310
     33  CG        19.2010   31.3450   18.5120 C.3    37  PRO37       0.0237
     34  CD        18.4220   32.2250   17.5350 C.3    37  PRO37       0.0939
     35  N         15.5030   32.5050   21.2280 N.am   38  ILE38      -0.1964
     36  CA        14.8800   33.4290   22.1630 C.3    38  ILE38       0.1727
     37  C         14.6340   32.7020   23.4690 C.2    38  ILE38       0.2616
     38  O         14.2090   31.5530   23.4740 O.2    38  ILE38      -0.2715
     39  CB        13.5100   34.0120   21.5870 C.3    38  ILE38       0.0290
     40  CG1       13.7270   34.7910   20.2720 C.3    38  ILE38       0.0022
     41  CG2       12.6840   34.8550   22.6500 C.3    38  ILE38       0.0023
     42  CD1       14.4300   36.1610   20.3640 C.3    38  ILE38       0.0001
     43  N         14.9200   33.3610   24.5890 N.am   39  GLY39      -0.1955
     44  CA        14.6180   32.7910   25.9090 C.3    39  GLY39       0.1869
     45  C         13.1340   32.9390   26.1320 C.2    39  GLY39       0.2309
     46  O         12.5240   34.0080   25.8350 O.2    39  GLY39      -0.2863
     47  N         11.2380   38.3560   26.3070 N.3    51  TYR51      -0.1227
     48  CA        11.8200   39.6950   26.3650 C.3    51  TYR51       0.1736
     49  C         12.5690   39.9290   25.0950 C.2    51  TYR51       0.2595
     50  O         13.6020   39.2890   24.8540 O.2    51  TYR51      -0.2718
     51  CB        12.7470   39.8710   27.5900 C.3    51  TYR51       0.0548
     52  CG        12.0010   39.5680   28.8800 C.ar   51  TYR51      -0.0200
     53  CD1       11.5490   40.5980   29.7130 C.ar   51  TYR51      -0.0009
     54  CD2       11.7390   38.2640   29.2570 C.ar   51  TYR51      -0.0009
     55  CE1       10.8510   40.3110   30.8870 C.ar   51  TYR51       0.0417
     56  CE2       11.0580   37.9660   30.4170 C.ar   51  TYR51       0.0417
     57  CZ        10.6010   38.9980   31.2170 C.ar   51  TYR51       0.1957
     58  OH         9.9350   38.6930   32.3640 O.3    51  TYR51      -0.2866
     59  N         12.0750   40.8860   24.3120 N.am   52  LEU52      -0.1966
     60  CA        12.4950   41.0530   22.9090 C.3    52  LEU52       0.1728
     61  C         13.1850   42.3800   22.6540 C.2    52  LEU52       0.2616
     62  O         12.6030   43.4310   22.8710 O.2    52  LEU52      -0.2715
     63  CB        11.2640   40.8500   21.9610 C.3    52  LEU52       0.0311
     64  CG        10.5590   39.4870   21.9700 C.3    52  LEU52       0.0022
     65  CD1        9.2790   39.3470   21.0420 C.3    52  LEU52       0.0001
     66  CD2       11.6030   38.3530   21.6290 C.3    52  LEU52       0.0001
     67  N         14.4150   42.3620   22.1830 N.am   53  TYR53      -0.1974
     68  CA        15.0840   43.6070   21.8030 C.3    53  TYR53       0.1639
     69  C         14.4320   44.2380   20.5950 C.2    53  TYR53       0.2290
     70  O         13.8740   43.5470   19.7250 O.2    53  TYR53      -0.2864
     71  CB        16.5630   43.3980   21.4700 C.3    53  TYR53       0.0560
     72  CG        17.4280   43.1670   22.6650 C.ar   53  TYR53      -0.0198
     73  CD1       17.7870   44.2220   23.4820 C.ar   53  TYR53      -0.0009
     74  CD2       17.8860   41.8860   22.9890 C.ar   53  TYR53      -0.0009
     75  CE1       18.5730   44.0240   24.6080 C.ar   53  TYR53       0.0417
     76  CE2       18.6910   41.6640   24.1100 C.ar   53  TYR53       0.0417
     77  CZ        19.0340   42.7490   24.9170 C.ar   53  TYR53       0.1957
     78  OH        19.8320   42.5920   26.0580 O.3    53  TYR53      -0.2866
     79  N         14.5750   43.8510   15.6600 N.3    56  THR56      -0.1203
     80  CA        14.8360   42.5190   15.1190 C.3    56  THR56       0.1994
     81  C         13.6580   42.1170   14.2900 C.2    56  THR56       0.2618
     82  O         12.5690   42.6410   14.4850 O.2    56  THR56      -0.2717
     83  CB        14.9860   41.4730   16.2260 C.3    56  THR56       0.1784
     84  OG1       13.7200   41.2760   16.8740 O.3    56  THR56      -0.2211
     85  CG2       16.0840   41.9230   17.2700 C.3    56  THR56       0.0376
     86  N         13.8370   41.1350   13.4110 N.am   57  ARG57      -0.1965
     87  CA        12.6940   40.5920   12.6630 C.3    57  ARG57       0.1729
     88  C         11.7030   39.8620   13.5500 C.2    57  ARG57       0.2616
     89  O         10.4930   39.8500   13.2730 O.2    57  ARG57      -0.2715
     90  CB        13.1680   39.6860   11.5170 C.3    57  ARG57       0.0348
     91  CG        13.2970   40.4280   10.2060 C.3    57  ARG57       0.0492
     92  CD        14.3520   39.7590    9.2940 C.3    57  ARG57       0.2205
     93  NE        15.4740   39.1880   10.0420 N.pl3  57  ARG57      -0.0865
     94  CZ        16.3630   38.3310    9.5450 C.cat  57  ARG57       0.5346
     95  NH1       16.2810   37.9420    8.2700 N.pl3  57  ARG57       0.1354
     96  NH2       17.3400   37.8670   10.3260 N.pl3  57  ARG57       0.1354
     97  N         12.2180   39.2260   14.5970 N.am   58  THR58      -0.1951
     98  CA        11.3750   38.5380   15.5710 C.3    58  THR58       0.1897
     99  C         10.3300   39.4960   16.1960 C.2    58  THR58       0.2313
    100  O          9.1500   39.1860   16.2390 O.2    58  THR58      -0.2863
    101  CB        12.2370   37.8620   16.6920 C.3    58  THR58       0.1794
    102  OG1       13.1100   36.9140   16.0710 O.3    58  THR58      -0.2208
    103  CG2       11.3490   37.0960   17.7040 C.3    58  THR58       0.0378
    104  N         20.6420   26.3250   16.3710 N.3    79  PHE79      -0.1241
    105  CA        20.8650   27.5370   17.1580 C.3    79  PHE79       0.1605
    106  C         21.8960   28.3980   16.4310 C.2    79  PHE79       0.2264
    107  O         21.7430   29.6220   16.3350 O.2    79  PHE79      -0.2867
    108  CB        21.3580   27.2050   18.5700 C.3    79  PHE79       0.0534
    109  CG        20.2620   26.8420   19.5190 C.ar   79  PHE79      -0.0203
    110  CD1       19.5850   27.8400   20.2490 C.ar   79  PHE79      -0.0042
    111  CD2       19.9000   25.5120   19.7040 C.ar   79  PHE79      -0.0042
    112  CE1       18.5650   27.5220   21.1200 C.ar   79  PHE79      -0.0003
    113  CE2       18.8800   25.2000   20.5750 C.ar   79  PHE79      -0.0003
    114  CZ        18.2090   26.2190   21.3030 C.ar   79  PHE79      -0.0000
    115  N         20.5660   29.9230   12.8650 N.3    82  SER82      -0.1202
    116  CA        19.5800   30.9700   13.0910 C.3    82  SER82       0.2020
    117  C         20.1380   32.1650   13.8210 C.2    82  SER82       0.2619
    118  O         19.4280   33.1390   13.9860 O.2    82  SER82      -0.2717
    119  CB        18.3010   30.4200   13.7650 C.3    82  SER82       0.2103
    120  OG        18.5290   29.9670   15.0830 O.3    82  SER82      -0.2182
    121  N         21.3850   32.1130   14.2820 N.am   83  THR83      -0.1952
    122  CA        22.0470   33.2910   14.9360 C.3    83  THR83       0.1897
    123  C         22.9870   34.0000   13.9250 C.2    83  THR83       0.2313
    124  O         23.0420   35.2190   13.8020 O.2    83  THR83      -0.2863
    125  CB        22.8890   32.8460   16.1590 C.3    83  THR83       0.1794
    126  OG1       22.0930   32.0690   17.0370 O.3    83  THR83      -0.2208
    127  CG2       23.4620   34.0000   16.9370 C.3    83  THR83       0.0378
    128  N         19.7660   26.7760   31.0280 N.3   149  ARG149     -0.1245
    129  CA        21.1870   26.9640   31.3280 C.3   149  ARG149      0.1563
    130  C         21.5850   26.8290   32.7910 C.2   149  ARG149      0.2260
    131  O         22.7530   27.0130   33.1120 O.2   149  ARG149     -0.2867
    132  CB        21.6680   28.2950   30.7830 C.3   149  ARG149      0.0307
    133  CG        21.7490   28.3110   29.2690 C.3   149  ARG149      0.0489
    134  CD        22.5350   29.5520   28.7940 C.3   149  ARG149      0.2205
    135  NE        21.8930   30.8210   29.1160 N.pl3 149  ARG149     -0.0865
    136  CZ        22.5640   31.9670   29.3640 C.cat 149  ARG149      0.5346
    137  NH1       21.8810   33.0430   29.6450 N.pl3 149  ARG149      0.1354
    138  NH2       23.9040   32.0390   29.3310 N.pl3 149  ARG149      0.1354
@<TRIPOS>BOND
     1    95    94    1
     2    92    93    1
     3    92    91    1
     4    94    93    2
     5    94    96    1
     6    10    11    1
     7    91    90    1
     8    11    14    1
     9    11    12    1
    10    16    15    2
    11    14    15    1
    12    15    17   am
    13    90    87    1
    14    12    18   am
    15    12    13    2
    16    18    19    1
    17    87    86    1
    18    87    88    1
    19    22    19    1
    20   115   116    1
    21   116   119    1
    22   116   117    1
    23    19    20    1
    24    89    88    2
    25    21    20    2
    26    86    81   am
    27    88    97   am
    28   119   120    1
    29   124   123    2
    30   117   118    2
    31   117   121   am
    32   123   122    1
    33    20    23   am
    34   121   122    1
    35    81    82    2
    36    81    80    1
    37    97    98    1
    38   122   125    1
    39    80    79    1
    40    80    83    1
    41    23    24    1
    42    98    99    1
    43    98   101    1
    44    24    27    1
    45    24    25    1
    46   102   101    1
    47   125   127    1
    48   125   126    1
    49    99   100    2
    50    83    84    1
    51    83    85    1
    52   107   106    2
    53   104   105    1
    54   106   105    1
    55   101   103    1
    56   105   108    1
    57    25    26    2
    58    25    28   am
    59    34    28    1
    60    34    33    1
    61    28    29    1
    62    33    32    1
    63   108   109    1
    64    29    32    1
    65    29    30    1
    66   109   111   ar
    67   109   110   ar
    68   111   113   ar
    69    70    69    2
    70   110   112   ar
    71    40    42    1
    72    40    39    1
    73    31    30    2
    74    30    35   am
    75   113   114   ar
    76    69    68    1
    77    65    64    1
    78   112   114   ar
    79    35    36    1
    80    71    68    1
    81    71    72    1
    82    39    36    1
    83    39    41    1
    84    66    64    1
    85    68    67    1
    86    63    64    1
    87    63    60    1
    88    36    37    1
    89    67    61   am
    90    61    62    2
    91    61    60    1
    92    72    74   ar
    93    72    73   ar
    94    60    59    1
    95    74    76   ar
    96    37    38    2
    97    37    43   am
    98    73    75   ar
    99    76    77   ar
   100     4     3    2
   101     3     2    1
   102    59    49   am
   103    43    44    1
   104    75    77   ar
   105    50    49    2
   106    77    78    1
   107    49    48    1
   108     5     2    1
   109     5     6    1
   110     2     1    1
   111    46    45    2
   112    44    45    1
   113     8     7   ar
   114    47    48    1
   115    48    51    1
   116     6     7    1
   117     7     9   ar
   118    51    52    1
   119   134   135    1
   120   134   133    1
   121    52    54   ar
   122    52    53   ar
   123   135   136    2
   124    54    56   ar
   125   133   132    1
   126   138   136    1
   127   136   137    1
   128    53    55   ar
   129    56    57   ar
   130   132   129    1
   131    55    57   ar
   132   128   129    1
   133    57    58    1
   134   129   130    1
   135   130   131    2
