@<TRIPOS>MOLECULE
tmp/2ptmA00.pdb
 131 123 0 0 0
SMALL
GASTEIGER

@<TRIPOS>ATOM
      1  N         25.5160   39.0700   14.0440 N.3   103  ILE103     -0.1245
      2  CA        25.2950   39.4940   15.4280 C.3   103  ILE103      0.1561
      3  C         26.5130   40.2310   15.9360 C.2   103  ILE103      0.2260
      4  O         27.6390   39.8060   15.6880 O.2   103  ILE103     -0.2867
      5  CB        25.0480   38.2800   16.3480 C.3   103  ILE103      0.0252
      6  CG1       23.6660   37.6670   16.0760 C.3   103  ILE103      0.0019
      7  CG2       25.1370   38.6810   17.8280 C.3   103  ILE103      0.0019
      8  CD1       23.3840   36.4070   16.9260 C.3   103  ILE103      0.0001
      9  N         32.2670   32.3990   15.9990 N.3   122  ILE122     -0.1245
     10  CA        31.8150   33.0250   17.2360 C.3   122  ILE122      0.1561
     11  C         32.9960   33.8040   17.8180 C.2   122  ILE122      0.2260
     12  O         34.0050   33.2130   18.1860 O.2   122  ILE122     -0.2867
     13  CB        31.3420   31.9610   18.2610 C.3   122  ILE122      0.0252
     14  CG1       30.2930   31.0250   17.6330 C.3   122  ILE122      0.0019
     15  CG2       30.8240   32.6210   19.5380 C.3   122  ILE122      0.0019
     16  CD1       29.0990   31.7320   17.0510 C.3   122  ILE122      0.0001
     17  N         34.5870   36.4120   20.5820 N.3   124  MET124     -0.1245
     18  CA        34.4220   37.0050   21.9050 C.3   124  MET124      0.1570
     19  C         34.7650   38.4890   21.8850 C.2   124  MET124      0.2261
     20  O         35.3410   38.9860   20.9180 O.2   124  MET124     -0.2867
     21  CB        35.2810   36.2700   22.9390 C.3   124  MET124      0.0387
     22  CG        34.9720   34.7870   23.0420 C.3   124  MET124      0.0595
     23  SD        33.1940   34.4600   23.0320 S.3   124  MET124     -0.1393
     24  CE        32.6610   35.3600   24.4970 C.3   124  MET124      0.0692
     25  N         35.9370   31.8120   19.6280 N.3   130  ALA130     -0.1231
     26  CA        35.6510   30.7280   20.5630 C.3   130  ALA130      0.1694
     27  C         35.4810   29.4280   19.7940 C.2   130  ALA130      0.2592
     28  O         35.9720   28.3810   20.1940 O.2   130  ALA130     -0.2718
     29  CB        34.3970   31.0350   21.3670 C.3   130  ALA130      0.0304
     30  N         34.7810   29.5090   18.6740 N.am  131  THR131     -0.1953
     31  CA        34.4790   28.3290   17.8910 C.3   131  THR131      0.1897
     32  C         33.8280   28.7640   16.5910 C.2   131  THR131      0.2313
     33  O         33.5340   29.9480   16.4020 O.2   131  THR131     -0.2863
     34  CB        33.5120   27.4010   18.6440 C.3   131  THR131      0.1794
     35  OG1       33.4650   26.1220   18.0000 O.3   131  THR131     -0.2208
     36  CG2       32.1110   28.0070   18.6820 C.3   131  THR131      0.0378
     37  N         30.5980   27.5400   13.8350 N.3   133  LEU133     -0.1245
     38  CA        29.3810   26.7430   13.7650 C.3   133  LEU133      0.1561
     39  C         28.9910   26.5640   12.3100 C.2   133  LEU133      0.2260
     40  O         29.3180   27.4040   11.4690 O.2   133  LEU133     -0.2867
     41  CB        28.2370   27.4320   14.5150 C.3   133  LEU133      0.0270
     42  CG        28.4070   27.6940   16.0110 C.3   133  LEU133      0.0019
     43  CD1       27.1760   28.4160   16.5360 C.3   133  LEU133      0.0001
     44  CD2       28.6350   26.3870   16.7690 C.3   133  LEU133      0.0001
     45  N         22.3710   29.7080   16.6630 N.3   139  PHE139     -0.1227
     46  CA        23.0300   30.6930   17.5050 C.3   139  PHE139      0.1736
     47  C         22.1160   31.8890   17.7030 C.2   139  PHE139      0.2596
     48  O         21.1470   32.0550   16.9660 O.2   139  PHE139     -0.2718
     49  CB        24.3610   31.1420   16.8850 C.3   139  PHE139      0.0547
     50  CG        24.2120   31.8000   15.5260 C.ar  139  PHE139     -0.0202
     51  CD1       23.8970   33.1500   15.4220 C.ar  139  PHE139     -0.0042
     52  CD2       24.3860   31.0660   14.3590 C.ar  139  PHE139     -0.0042
     53  CE1       23.7610   33.7640   14.1650 C.ar  139  PHE139     -0.0003
     54  CE2       24.2470   31.6570   13.1010 C.ar  139  PHE139     -0.0003
     55  CZ        23.9370   33.0010   12.9990 C.ar  139  PHE139     -0.0000
     56  N         22.4370   32.7170   18.6950 N.am  140  GLY140     -0.1942
     57  CA        21.6770   33.9230   18.9780 C.3   140  GLY140      0.2014
     58  C         20.5410   33.6420   19.9450 C.2   140  GLY140      0.2639
     59  O         19.6280   34.4570   20.1080 O.2   140  GLY140     -0.2714
     60  N         20.5880   32.4800   20.5870 N.am  141  GLU141     -0.1963
     61  CA        19.5330   32.1070   21.5210 C.3   141  GLU141      0.1733
     62  C         19.7630   32.6540   22.9350 C.2   141  GLU141      0.2616
     63  O         18.8070   32.8510   23.6870 O.2   141  GLU141     -0.2715
     64  CB        19.3670   30.5810   21.5770 C.3   141  GLU141      0.0429
     65  CG        20.3780   29.8580   22.4590 C.3   141  GLU141      0.1163
     66  CD        21.7520   29.7320   21.8300 C.2   141  GLU141      0.3649
     67  OE1       21.9340   30.1280   20.6660 O.co2 141  GLU141     -0.2457
     68  OE2       22.6640   29.2220   22.5050 O.co2 141  GLU141     -0.2457
     69  N         21.0200   32.8780   23.3060 N.am  142  ILE142     -0.1963
     70  CA        21.3380   33.2100   24.7000 C.3   142  ILE142      0.1727
     71  C         20.6140   34.4800   25.1070 C.2   142  ILE142      0.2616
     72  O         19.9360   34.5310   26.1390 O.2   142  ILE142     -0.2715
     73  CB        22.8590   33.4330   24.9360 C.3   142  ILE142      0.0290
     74  CG1       23.6770   32.2000   24.5670 C.3   142  ILE142      0.0022
     75  CG2       23.1100   33.8190   26.3790 C.3   142  ILE142      0.0023
     76  CD1       23.1370   30.9560   25.1240 C.3   142  ILE142      0.0001
     77  N         20.7590   35.5070   24.2770 N.am  143  CYS143     -0.1968
     78  CA        20.1350   36.8090   24.5090 C.3   143  CYS143      0.1712
     79  C         18.6120   36.7060   24.6490 C.2   143  CYS143      0.2296
     80  O         17.9980   37.4360   25.4230 O.2   143  CYS143     -0.2864
     81  CB        20.4980   37.7300   23.3440 C.3   143  CYS143      0.0983
     82  SG        19.8910   39.3870   23.4590 S.3   143  CYS143     -0.0798
     83  N         23.6180   40.4060   23.6110 N.3   150  ARG150     -0.1231
     84  CA        24.4320   39.4300   22.8840 C.3   150  ARG150      0.1694
     85  C         25.7740   39.2230   23.5870 C.2   150  ARG150      0.2592
     86  O         26.4280   40.1940   23.9530 O.2   150  ARG150     -0.2718
     87  CB        24.6820   39.9160   21.4580 C.3   150  ARG150      0.0321
     88  CG        23.4160   40.1840   20.6240 C.3   150  ARG150      0.0489
     89  CD        22.6050   38.9260   20.3810 C.3   150  ARG150      0.2205
     90  NE        21.6830   39.0830   19.2580 N.pl3 150  ARG150     -0.0865
     91  CZ        20.7930   38.1700   18.8820 C.cat 150  ARG150      0.5346
     92  NH1       20.6920   37.0270   19.5470 N.pl3 150  ARG150      0.1354
     93  NH2       20.0060   38.4000   17.8310 N.pl3 150  ARG150      0.1354
     94  N         26.1950   37.9670   23.7640 N.am  151  VAL151     -0.1966
     95  CA        27.4160   37.6950   24.5330 C.3   151  VAL151      0.1727
     96  C         28.6580   37.5000   23.6700 C.2   151  VAL151      0.2616
     97  O         29.7680   37.3680   24.1860 O.2   151  VAL151     -0.2715
     98  CB        27.2530   36.5040   25.5080 C.3   151  VAL151      0.0290
     99  CG1       26.0160   36.7030   26.3670 C.3   151  VAL151      0.0023
    100  CG2       27.1930   35.1750   24.7520 C.3   151  VAL151      0.0023
    101  N         28.4670   37.5100   22.3560 N.am  152  ALA152     -0.1977
    102  CA        29.5570   37.2830   21.4210 C.3   152  ALA152      0.1597
    103  C         29.1150   37.8660   20.0970 C.2   152  ALA152      0.2287
    104  O         27.9300   38.1250   19.9120 O.2   152  ALA152     -0.2864
    105  CB        29.8220   35.7840   21.2710 C.3   152  ALA152      0.0319
    106  N         28.8760   37.2100   15.8620 N.3   154  VAL154     -0.1245
    107  CA        28.8350   36.0770   14.9500 C.3   154  VAL154      0.1561
    108  C         29.0860   36.6030   13.5490 C.2   154  VAL154      0.2260
    109  O         28.3430   37.4590   13.0640 O.2   154  VAL154     -0.2867
    110  CB        27.4730   35.3670   15.0020 C.3   154  VAL154      0.0252
    111  CG1       27.4470   34.1600   14.0450 C.3   154  VAL154      0.0019
    112  CG2       27.1550   34.9380   16.4520 C.3   154  VAL154      0.0019
    113  N         27.4510   26.7370   26.6700 N.3   191  ARG191     -0.1231
    114  CA        28.2630   27.5790   25.8210 C.3   191  ARG191      0.1694
    115  C         28.9670   28.4380   26.8560 C.2   191  ARG191      0.2591
    116  O         28.5830   29.5660   27.1490 O.2   191  ARG191     -0.2718
    117  CB        27.3920   28.3100   24.7860 C.3   191  ARG191      0.0321
    118  CG        27.0300   27.3410   23.6210 C.3   191  ARG191      0.0489
    119  CD        25.9070   27.7920   22.6560 C.3   191  ARG191      0.2205
    120  NE        25.9280   26.9220   21.4580 N.pl3 191  ARG191     -0.0865
    121  CZ        25.2610   27.1450   20.3270 C.cat 191  ARG191      0.5346
    122  NH1       24.4800   28.2040   20.2100 N.pl3 191  ARG191      0.1354
    123  NH2       25.3720   26.2990   19.3010 N.pl3 191  ARG191      0.1354
    124  N         30.0050   27.8200   27.4170 N.am  192  LEU192     -0.1980
    125  CA        30.4860   28.0470   28.7860 C.3   192  LEU192      0.1596
    126  C         30.7480   29.4850   29.2560 C.2   192  LEU192      0.2287
    127  O         30.5440   30.4730   28.5530 O.2   192  LEU192     -0.2864
    128  CB        31.7050   27.1540   29.0520 C.3   192  LEU192      0.0297
    129  CG        31.4000   25.6590   28.8860 C.3   192  LEU192      0.0022
    130  CD1       32.6740   24.8250   28.8280 C.3   192  LEU192      0.0001
    131  CD2       30.4550   25.1660   29.9930 C.3   192  LEU192      0.0001
@<TRIPOS>BOND
     1    40    39    2
     2    39    38    1
     3    55    54   ar
     4    55    53   ar
     5   109   108    2
     6    54    52   ar
     7   108   107    1
     8    38    37    1
     9    38    41    1
    10     1     2    1
    11   111   110    1
    12    53    51   ar
    13    52    50   ar
    14    41    42    1
    15   107   110    1
    16   107   106    1
    17   110   112    1
    18    51    50   ar
    19     2     3    1
    20     2     5    1
    21    50    49    1
    22     4     3    2
    23     9    10    1
    24    42    43    1
    25    42    44    1
    26     6     5    1
    27     6     8    1
    28     5     7    1
    29    33    32    2
    30    32    31    1
    31    45    46    1
    32    49    46    1
    33    48    47    2
    34    16    14    1
    35    10    11    1
    36    10    13    1
    37    46    47    1
    38    14    13    1
    39    47    56   am
    40    11    12    2
    41    93    91    1
    42    31    34    1
    43    31    30    1
    44    35    34    1
    45    13    15    1
    46    34    36    1
    47    30    27   am
    48    56    57    1
    49    91    90    2
    50    91    92    1
    51    57    58    1
    52    90    89    1
    53   123   121    1
    54    25    26    1
    55    27    28    2
    56    27    26    1
    57   104   103    2
    58    58    59    2
    59    58    60   am
    60   103   102    1
    61   122   121    1
    62   121   120    2
    63    89    88    1
    64    26    29    1
    65    17    18    1
    66    60    61    1
    67    88    87    1
    68    67    66   ar
    69    20    19    2
    70   105   102    1
    71   102   101    1
    72   120   119    1
    73    87    84    1
    74    61    64    1
    75    61    62    1
    76    64    65    1
    77    66    65    1
    78    66    68   ar
    79    19    18    1
    80    18    21    1
    81   101    96   am
    82   119   118    1
    83    84    85    1
    84    84    83    1
    85    62    69   am
    86    62    63    2
    87    21    22    1
    88    23    22    1
    89    23    24    1
    90    69    70    1
    91    81    82    1
    92    81    78    1
    93    85    94   am
    94    85    86    2
    95   118   117    1
    96    96    97    2
    97    96    95    1
    98    94    95    1
    99    77    78    1
   100    77    71   am
   101    78    79    1
   102    95    98    1
   103    74    73    1
   104    74    76    1
   105    79    80    2
   106    70    73    1
   107    70    71    1
   108   100    98    1
   109   117   114    1
   110    73    75    1
   111    71    72    2
   112    98    99    1
   113   114   113    1
   114   114   115    1
   115   115   116    2
   116   115   124   am
   117   124   125    1
   118   127   126    2
   119   125   128    1
   120   125   126    1
   121   130   129    1
   122   129   128    1
   123   129   131    1
