@<TRIPOS>MOLECULE
tmp/2ptqA03.pdb
 117 109 0 0 0
SMALL
GASTEIGER

@<TRIPOS>ATOM
      1  N         30.8450  -31.0820   23.3920 N.3    86  GLU86      -0.1245
      2  CA        30.7240  -29.7530   22.8060 C.3    86  GLU86       0.1567
      3  C         30.3220  -29.8350   21.3330 C.2    86  GLU86       0.2260
      4  O         29.6880  -28.9230   20.8090 O.2    86  GLU86      -0.2867
      5  CB        32.0440  -28.9830   22.9560 C.3    86  GLU86       0.0388
      6  CG        32.0570  -27.6240   22.2710 C.3    86  GLU86       0.1160
      7  CD        33.3480  -26.8610   22.5080 C.2    86  GLU86       0.3649
      8  OE1       34.4110  -27.5050   22.6370 O.co2  86  GLU86      -0.2457
      9  OE2       33.3050  -25.6170   22.5460 O.co2  86  GLU86      -0.2457
     10  N         27.7180  -27.0990   21.1350 N.3    90  ASN90      -0.1225
     11  CA        28.2880  -25.9080   20.5000 C.3    90  ASN90       0.1785
     12  C         28.3850  -24.8410   21.5900 C.2    90  ASN90       0.2597
     13  O         28.2340  -23.6420   21.3350 O.2    90  ASN90      -0.2718
     14  CB        27.4160  -25.3880   19.3490 C.3    90  ASN90       0.1169
     15  CG        28.1630  -24.3920   18.4630 C.2    90  ASN90       0.2627
     16  OD1       27.5840  -23.7660   17.5720 O.2    90  ASN90      -0.2716
     17  ND2       29.4580  -24.2510   18.7060 N.am   90  ASN90      -0.0877
     18  N         28.6290  -25.3070   22.8110 N.am   91  HIS91      -0.1961
     19  CA        28.7570  -24.4530   23.9850 C.3    91  HIS91       0.1787
     20  C         29.6850  -25.2040   24.9270 C.2    91  HIS91       0.2620
     21  O         29.3230  -26.2580   25.4590 O.2    91  HIS91      -0.2715
     22  CB        27.3880  -24.2390   24.6370 C.3    91  HIS91       0.0785
     23  CG        27.3840  -23.1820   25.6980 C.ar   91  HIS91       0.0821
     24  ND1       28.0560  -23.3230   26.8920 N.ar   91  HIS91      -0.2267
     25  CD2       26.8050  -21.9570   25.7350 C.ar   91  HIS91       0.1154
     26  CE1       27.8930  -22.2320   27.6190 C.ar   91  HIS91       0.1986
     27  NE2       27.1380  -21.3870   26.9400 N.ar   91  HIS91      -0.2212
     28  N         30.8820  -24.6610   25.1340 N.am   92  ASP92      -0.1971
     29  CA        31.8740  -25.3230   25.9650 C.3    92  ASP92       0.1709
     30  C         31.5520  -25.4800   27.4480 C.2    92  ASP92       0.2293
     31  O         31.7220  -26.5650   27.9950 O.2    92  ASP92      -0.2864
     32  CB        33.2510  -24.6600   25.7770 C.3    92  ASP92       0.1436
     33  CG        33.2330  -23.1560   26.0210 C.2    92  ASP92       0.3671
     34  OD1       34.2930  -22.5190   25.8270 O.co2  92  ASP92      -0.2456
     35  OD2       32.1790  -22.6090   26.4040 O.co2  92  ASP92      -0.2456
     36  N         25.9810  -18.7170   35.4690 N.3   122  THR122     -0.1203
     37  CA        26.0220  -18.3320   34.0680 C.3   122  THR122      0.1994
     38  C         27.4410  -18.7800   33.7120 C.2   122  THR122      0.2619
     39  O         28.3020  -18.8790   34.5920 O.2   122  THR122     -0.2717
     40  CB        25.8670  -16.8050   33.8460 C.3   122  THR122      0.1784
     41  OG1       25.7770  -16.5430   32.4360 O.3   122  THR122     -0.2211
     42  CG2       27.0550  -16.0420   34.4120 C.3   122  THR122      0.0376
     43  N         27.6860  -19.0680   32.4430 N.am  123  SER123     -0.1937
     44  CA        28.9980  -19.5380   32.0200 C.3   123  SER123      0.2055
     45  C         30.1500  -18.6600   32.4840 C.2   123  SER123      0.2642
     46  O         31.1850  -19.1700   32.9160 O.2   123  SER123     -0.2714
     47  CB        29.0300  -19.6850   30.4980 C.3   123  SER123      0.2130
     48  OG        28.0610  -20.6260   30.0800 O.3   123  SER123     -0.2179
     49  N         29.9780  -17.3430   32.4060 N.am  124  GLU124     -0.1976
     50  CA        31.0460  -16.4360   32.8240 C.3   124  GLU124      0.1602
     51  C         31.3910  -16.5260   34.3080 C.2   124  GLU124      0.2287
     52  O         32.4880  -16.1370   34.7090 O.2   124  GLU124     -0.2864
     53  CB        30.7040  -14.9880   32.4450 C.3   124  GLU124      0.0415
     54  CG        30.7960  -14.7350   30.9480 C.3   124  GLU124      0.1163
     55  CD        32.1570  -15.1110   30.3790 C.2   124  GLU124      0.3649
     56  OE1       32.2030  -15.6600   29.2540 O.co2 124  GLU124     -0.2457
     57  OE2       33.1810  -14.8500   31.0530 O.co2 124  GLU124     -0.2457
     58  N         33.9320  -19.1170   33.8900 N.3   127  ASN127     -0.1240
     59  CA        35.0290  -18.6070   33.0730 C.3   127  ASN127      0.1653
     60  C         35.9230  -17.5840   33.7650 C.2   127  ASN127      0.2266
     61  O         37.1410  -17.7440   33.7850 O.2   127  ASN127     -0.2867
     62  CB        34.5020  -17.9840   31.7700 C.3   127  ASN127      0.1155
     63  CG        33.9400  -19.0150   30.8110 C.2   127  ASN127      0.2627
     64  OD1       34.3940  -20.1560   30.7730 O.2   127  ASN127     -0.2716
     65  ND2       32.9610  -18.6090   30.0120 N.am  127  ASN127     -0.0877
     66  N         27.5320   -9.4550   32.9310 N.3   247  GLN247     -0.1245
     67  CA        27.6570  -10.9010   32.7890 C.3   247  GLN247      0.1566
     68  C         29.1200  -11.2990   32.9650 C.2   247  GLN247      0.2260
     69  O         29.4300  -12.3660   33.4970 O.2   247  GLN247     -0.2867
     70  CB        27.1790  -11.3810   31.4160 C.3   247  GLN247      0.0367
     71  CG        27.2980  -12.9010   31.2750 C.3   247  GLN247      0.0905
     72  CD        26.6600  -13.4400   30.0130 C.2   247  GLN247      0.2608
     73  OE1       27.2630  -13.4250   28.9380 O.2   247  GLN247     -0.2717
     74  NE2       25.4260  -13.9110   30.1340 N.am  247  GLN247     -0.0878
     75  N         27.5790   -7.3600   27.8550 N.3   335  ARG335     -0.1245
     76  CA        28.6780   -8.1350   27.2700 C.3   335  ARG335      0.1563
     77  C         28.4540   -8.6670   25.8620 C.2   335  ARG335      0.2260
     78  O         27.3410   -9.0340   25.4800 O.2   335  ARG335     -0.2867
     79  CB        29.1380   -9.2990   28.1870 C.3   335  ARG335      0.0307
     80  CG        28.3960  -10.6460   28.0600 C.3   335  ARG335      0.0489
     81  CD        28.8610  -11.4890   26.8550 C.3   335  ARG335      0.2205
     82  NE        30.2790  -11.8500   26.9070 N.pl3 335  ARG335     -0.0865
     83  CZ        30.7740  -12.9740   27.4220 C.cat 335  ARG335      0.5346
     84  NH1       29.9760  -13.8960   27.9420 N.pl3 335  ARG335      0.1354
     85  NH2       32.0880  -13.1720   27.4280 N.pl3 335  ARG335      0.1354
     86  N         30.4830  -11.3570   23.0870 N.3   337  LEU337     -0.1245
     87  CA        31.3830  -12.4960   23.2470 C.3   337  LEU337      0.1561
     88  C         32.7890  -12.3960   22.6620 C.2   337  LEU337      0.2260
     89  O         33.5430  -13.3670   22.7090 O.2   337  LEU337     -0.2867
     90  CB        30.6940  -13.7430   22.6940 C.3   337  LEU337      0.0270
     91  CG        31.2360  -15.0980   23.1450 C.3   337  LEU337      0.0019
     92  CD1       31.0910  -15.2450   24.6600 C.3   337  LEU337      0.0001
     93  CD2       30.4740  -16.1960   22.4220 C.3   337  LEU337      0.0001
     94  N         35.8000  -13.7600   24.7510 N.3   340  SER340     -0.1202
     95  CA        36.0200  -15.1840   24.9690 C.3   340  SER340      0.2020
     96  C         37.2050  -15.7170   24.1590 C.2   340  SER340      0.2619
     97  O         38.1600  -16.2490   24.7250 O.2   340  SER340     -0.2717
     98  CB        34.7610  -15.9800   24.6210 C.3   340  SER340      0.2103
     99  OG        35.0260  -17.3730   24.6890 O.3   340  SER340     -0.2182
    100  N         37.1540  -15.5720   22.8390 N.am  341  THR341     -0.1952
    101  CA        38.2470  -16.0780   22.0120 C.3   341  THR341      0.1897
    102  C         39.5570  -15.3580   22.3470 C.2   341  THR341      0.2313
    103  O         40.6300  -15.9680   22.3540 O.2   341  THR341     -0.2863
    104  CB        37.9170  -15.9490   20.4930 C.3   341  THR341      0.1794
    105  OG1       38.8580  -16.7230   19.7320 O.3   341  THR341     -0.2208
    106  CG2       37.9650  -14.4880   20.0320 C.3   341  THR341      0.0378
    107  N         41.5410  -16.6420   25.2720 N.3   344  ARG344     -0.1245
    108  CA        42.2040  -17.9250   25.0760 C.3   344  ARG344      0.1563
    109  C         43.6610  -17.6420   24.7260 C.2   344  ARG344      0.2260
    110  O         44.4580  -18.5590   24.5210 O.2   344  ARG344     -0.2867
    111  CB        41.5330  -18.7090   23.9460 C.3   344  ARG344      0.0307
    112  CG        40.0920  -19.0880   24.2480 C.3   344  ARG344      0.0489
    113  CD        39.4400  -19.8290   23.0830 C.3   344  ARG344      0.2205
    114  NE        38.0040  -20.0050   23.2950 N.pl3 344  ARG344     -0.0865
    115  CZ        37.4620  -20.9300   24.0810 C.cat 344  ARG344      0.5346
    116  NH1       38.2370  -21.7860   24.7360 N.pl3 344  ARG344      0.1354
    117  NH2       36.1410  -20.9880   24.2250 N.pl3 344  ARG344      0.1354
@<TRIPOS>BOND
     1    16    15    2
     2    15    17   am
     3    15    14    1
     4    14    11    1
     5   105   104    1
     6   106   104    1
     7   104   101    1
     8    11    10    1
     9    11    12    1
    10     4     3    2
    11     3     2    1
    12    13    12    2
    13    12    18   am
    14   101   102    1
    15   101   100    1
    16     6     7    1
    17     6     5    1
    18   102   103    2
    19    93    91    1
    20     7     9   ar
    21     7     8   ar
    22    88    89    2
    23    88    87    1
    24    90    91    1
    25    90    87    1
    26     2     5    1
    27     2     1    1
    28    18    19    1
    29   100    96   am
    30   113   114    1
    31   113   112    1
    32    86    87    1
    33    91    92    1
    34   114   115    2
    35   111   112    1
    36   111   108    1
    37    19    22    1
    38    19    20    1
    39   115   117    1
    40   115   116    1
    41    96    97    2
    42    96    95    1
    43   110   109    2
    44    98    99    1
    45    98    95    1
    46    22    23    1
    47   109   108    1
    48    94    95    1
    49    20    28   am
    50    20    21    2
    51   108   107    1
    52    28    29    1
    53    78    77    2
    54    23    25   ar
    55    23    24   ar
    56    25    27   ar
    57    32    29    1
    58    32    33    1
    59    34    33   ar
    60    77    76    1
    61    29    30    1
    62    33    35   ar
    63    81    82    1
    64    81    80    1
    65    24    26   ar
    66    82    83    2
    67    27    26   ar
    68    76    75    1
    69    76    79    1
    70    83    85    1
    71    83    84    1
    72    30    31    2
    73    80    79    1
    74    73    72    2
    75    56    55   ar
    76    65    63   am
    77    72    74   am
    78    72    71    1
    79    48    47    1
    80    55    54    1
    81    55    57   ar
    82    47    44    1
    83    64    63    2
    84    63    62    1
    85    54    53    1
    86    71    70    1
    87    70    67    1
    88    62    59    1
    89    44    43    1
    90    44    45    1
    91    49    45   am
    92    49    50    1
    93    41    40    1
    94    43    38   am
    95    53    50    1
    96    45    46    2
    97    67    66    1
    98    67    68    1
    99    50    51    1
   100    68    69    2
   101    59    60    1
   102    59    58    1
   103    38    37    1
   104    38    39    2
   105    60    61    2
   106    40    37    1
   107    40    42    1
   108    37    36    1
   109    51    52    2
