@<TRIPOS>MOLECULE
tmp/2ptqA02.pdb
 91 85 0 0 0
SMALL
GASTEIGER

@<TRIPOS>ATOM
      1  N         58.9810  -23.9700   17.8200 N.3    15  ARG15      -0.1231
      2  CA        60.4020  -23.8910   18.1530 C.3    15  ARG15       0.1694
      3  C         60.7090  -23.6830   19.6400 C.2    15  ARG15       0.2592
      4  O         61.6460  -24.2790   20.1740 O.2    15  ARG15      -0.2718
      5  CB        61.0560  -22.7800   17.3200 C.3    15  ARG15       0.0321
      6  CG        62.5770  -22.6360   17.4670 C.3    15  ARG15       0.0489
      7  CD        63.0910  -21.6450   16.4200 C.3    15  ARG15       0.2205
      8  NE        64.4880  -21.2370   16.5860 N.pl3  15  ARG15      -0.0865
      9  CZ        65.5490  -21.9620   16.2360 C.cat  15  ARG15       0.5346
     10  NH1       65.4000  -23.1640   15.6980 N.pl3  15  ARG15       0.1354
     11  NH2       66.7700  -21.4630   16.3880 N.pl3  15  ARG15       0.1354
     12  N         59.9240  -22.8490   20.3150 N.am   16  TYR16      -0.1976
     13  CA        60.1740  -22.5830   21.7300 C.3    16  TYR16       0.1639
     14  C         59.2180  -23.3160   22.6650 C.2    16  TYR16       0.2290
     15  O         59.1330  -22.9940   23.8490 O.2    16  TYR16      -0.2864
     16  CB        60.0910  -21.0780   21.9890 C.3    16  TYR16       0.0560
     17  CG        60.8250  -20.2610   20.9510 C.ar   16  TYR16      -0.0198
     18  CD1       62.2000  -20.4100   20.7590 C.ar   16  TYR16      -0.0009
     19  CD2       60.1400  -19.3530   20.1430 C.ar   16  TYR16      -0.0009
     20  CE1       62.8790  -19.6730   19.7830 C.ar   16  TYR16       0.0417
     21  CE2       60.8060  -18.6110   19.1670 C.ar   16  TYR16       0.0417
     22  CZ        62.1720  -18.7760   18.9940 C.ar   16  TYR16       0.1957
     23  OH        62.8230  -18.0340   18.0400 O.3    16  TYR16      -0.2866
     24  N         78.4070  -22.3680   15.7710 N.3   293  ILE293     -0.1231
     25  CA        78.6670  -21.6060   14.5590 C.3   293  ILE293      0.1692
     26  C         78.1230  -20.1950   14.7560 C.2   293  ILE293      0.2593
     27  O         76.9550  -20.0160   15.1020 O.2   293  ILE293     -0.2718
     28  CB        77.9500  -22.2500   13.3420 C.3   293  ILE293      0.0266
     29  CG1       78.5370  -23.6400   13.0620 C.3   293  ILE293      0.0019
     30  CG2       78.0270  -21.3280   12.1280 C.3   293  ILE293      0.0020
     31  CD1       80.0010  -23.6430   12.6420 C.3   293  ILE293      0.0001
     32  N         78.9730  -19.1960   14.5480 N.am  294  GLY294     -0.1942
     33  CA        78.5280  -17.8250   14.6930 C.3   294  GLY294      0.2014
     34  C         77.8400  -17.3870   13.4110 C.2   294  GLY294      0.2639
     35  O         76.6950  -16.9210   13.4230 O.2   294  GLY294     -0.2714
     36  N         78.5490  -17.5660   12.3010 N.am  295  SER295     -0.1949
     37  CA        78.0640  -17.1950   10.9770 C.3   295  SER295      0.1924
     38  C         78.2800  -18.3400   10.0020 C.2   295  SER295      0.2314
     39  O         79.2770  -19.0480   10.0900 O.2   295  SER295     -0.2863
     40  CB        78.8270  -15.9690   10.4700 C.3   295  SER295      0.2116
     41  OG        78.5400  -15.7250    9.0990 O.3   295  SER295     -0.2180
     42  N         80.8650  -16.0850    7.6040 N.3   298  MET298     -0.1245
     43  CA        81.9820  -15.3940    8.2580 C.3   298  MET298      0.1570
     44  C         82.3900  -16.2300    9.4720 C.2   298  MET298      0.2261
     45  O         81.8220  -16.0910   10.5530 O.2   298  MET298     -0.2867
     46  CB        81.5540  -13.9960    8.7150 C.3   298  MET298      0.0387
     47  CG        81.2400  -13.0320    7.5730 C.3   298  MET298      0.0595
     48  SD        80.6110  -11.4450    8.1630 S.3   298  MET298     -0.1393
     49  CE        78.8650  -11.8520    8.3220 C.3   298  MET298      0.0692
     50  N         82.8010  -14.7950   13.3250 N.3   301  LYS301     -0.1245
     51  CA        81.6900  -14.2730   14.1190 C.3   301  LYS301      0.1561
     52  C         81.3040  -14.9780   15.4170 C.2   301  LYS301      0.2260
     53  O         81.2640  -16.2060   15.5020 O.2   301  LYS301     -0.2867
     54  CB        80.4190  -14.1630   13.2550 C.3   301  LYS301      0.0271
     55  CG        80.4060  -13.0340   12.2210 C.3   301  LYS301      0.0035
     56  CD        80.6560  -11.6680   12.8670 C.3   301  LYS301      0.0206
     57  CE        79.7180  -10.6000   12.3100 C.3   301  LYS301      0.1093
     58  NZ        78.3010  -10.8260   12.7440 N.3   301  LYS301     -0.1314
     59  N         78.2040  -13.9090   17.9260 N.3   303  ASN303     -0.1240
     60  CA        77.1140  -12.9460   18.0950 C.3   303  ASN303      0.1653
     61  C         76.2600  -13.1020   19.3560 C.2   303  ASN303      0.2266
     62  O         76.1010  -14.2050   19.8840 O.2   303  ASN303     -0.2867
     63  CB        76.1850  -12.9980   16.8740 C.3   303  ASN303      0.1155
     64  CG        76.9340  -12.9070   15.5520 C.2   303  ASN303      0.2627
     65  OD1       77.8030  -12.0570   15.3700 O.2   303  ASN303     -0.2716
     66  ND2       76.5800  -13.7740   14.6160 N.am  303  ASN303     -0.0877
     67  N         73.2640  -13.5520   20.0400 N.3   305  ILE305     -0.1245
     68  CA        71.9560  -14.0450   19.6080 C.3   305  ILE305      0.1561
     69  C         70.9240  -14.2120   20.7180 C.2   305  ILE305      0.2260
     70  O         69.7250  -14.1260   20.4700 O.2   305  ILE305     -0.2867
     71  CB        72.0730  -15.3960   18.8670 C.3   305  ILE305      0.0252
     72  CG1       72.4150  -16.5160   19.8480 C.3   305  ILE305      0.0019
     73  CG2       73.1380  -15.3050   17.7890 C.3   305  ILE305      0.0019
     74  CD1       72.4090  -17.8970   19.1970 C.3   305  ILE305      0.0001
     75  N         69.3770  -10.8050   21.3800 N.3   308  GLU308     -0.1231
     76  CA        68.5800  -10.4280   20.2190 C.3   308  GLU308      0.1699
     77  C         67.2720  -11.2040   20.2090 C.2   308  GLU308      0.2592
     78  O         66.2130  -10.6420   19.9330 O.2   308  GLU308     -0.2718
     79  CB        69.3830  -10.6650   18.9340 C.3   308  GLU308      0.0402
     80  CG        70.6180   -9.7690   18.8750 C.3   308  GLU308      0.1161
     81  CD        71.5040  -10.0310   17.6780 C.2   308  GLU308      0.3649
     82  OE1       72.1040  -11.1240   17.6100 O.co2 308  GLU308     -0.2457
     83  OE2       71.5990   -9.1360   16.8070 O.co2 308  GLU308     -0.2457
     84  N         67.3440  -12.4910   20.5270 N.am  309  ASN309     -0.1974
     85  CA        66.1440  -13.3160   20.5700 C.3   309  ASN309      0.1688
     86  C         65.2020  -12.7610   21.6320 C.2   309  ASN309      0.2292
     87  O         63.9970  -12.6430   21.4160 O.2   309  ASN309     -0.2864
     88  CB        66.5040  -14.7660   20.8950 C.3   309  ASN309      0.1181
     89  CG        65.2770  -15.6410   21.0850 C.2   309  ASN309      0.2629
     90  OD1       64.6930  -15.6830   22.1690 O.2   309  ASN309     -0.2716
     91  ND2       64.8740  -16.3350   20.0270 N.am  309  ASN309     -0.0877
@<TRIPOS>BOND
     1    47    48    1
     2    47    46    1
     3    42    43    1
     4    48    49    1
     5    43    46    1
     6    43    44    1
     7    41    40    1
     8    44    45    2
     9    38    39    2
    10    38    37    1
    11    40    37    1
    12    37    36    1
    13    30    28    1
    14    55    56    1
    15    55    54    1
    16    36    34   am
    17    57    58    1
    18    57    56    1
    19    31    29    1
    20    29    28    1
    21    54    51    1
    22    50    51    1
    23    28    25    1
    24    34    35    2
    25    34    33    1
    26    51    52    1
    27    32    33    1
    28    32    26   am
    29    25    26    1
    30    25    24    1
    31    66    64   am
    32    26    27    2
    33    65    64    2
    34    52    53    2
    35    64    63    1
    36    10     9    1
    37     9    11    1
    38     9     8    2
    39     7     8    1
    40     7     6    1
    41    83    81   ar
    42    63    60    1
    43     5     6    1
    44     5     2    1
    45    82    81   ar
    46    81    80    1
    47    73    71    1
    48     1     2    1
    49    59    60    1
    50    23    22    1
    51    60    61    1
    52     2     3    1
    53    71    68    1
    54    71    72    1
    55    80    79    1
    56    79    76    1
    57    22    21   ar
    58    22    20   ar
    59    21    19   ar
    60    74    72    1
    61    61    62    2
    62    68    67    1
    63    68    69    1
    64     3     4    2
    65     3    12   am
    66    20    18   ar
    67    78    77    2
    68    91    89   am
    69    19    17   ar
    70    77    76    1
    71    77    84   am
    72    76    75    1
    73    12    13    1
    74    70    69    2
    75    84    85    1
    76    85    88    1
    77    85    86    1
    78    18    17   ar
    79    88    89    1
    80    17    16    1
    81    89    90    2
    82    87    86    2
    83    13    16    1
    84    13    14    1
    85    14    15    2
