@<TRIPOS>MOLECULE
tmp/2ptrB00.pdb
 138 129 0 0 0
SMALL
GASTEIGER

@<TRIPOS>ATOM
      1  N         70.8000  -29.0960   14.5250 N.3    86  GLU86      -0.1245
      2  CA        70.8090  -27.7670   15.1220 C.3    86  GLU86       0.1567
      3  C         71.1910  -27.8150   16.6060 C.2    86  GLU86       0.2260
      4  O         71.6040  -26.8050   17.1740 O.2    86  GLU86      -0.2867
      5  CB        69.4460  -27.0800   14.9420 C.3    86  GLU86       0.0388
      6  CG        69.4760  -25.6000   15.3500 C.3    86  GLU86       0.1160
      7  CD        68.1280  -24.9050   15.2530 C.2    86  GLU86       0.3649
      8  OE1       68.0650  -23.7100   15.6060 O.co2  86  GLU86      -0.2457
      9  OE2       67.1400  -25.5350   14.8260 O.co2  86  GLU86      -0.2457
     10  N         73.5280  -24.7830   16.8320 N.3    90  ASN90      -0.1225
     11  CA        72.8090  -23.6600   17.4240 C.3    90  ASN90       0.1785
     12  C         72.6610  -22.5940   16.3330 C.2    90  ASN90       0.2597
     13  O         72.7000  -21.3900   16.6010 O.2    90  ASN90      -0.2718
     14  CB        73.5350  -23.0700   18.6390 C.3    90  ASN90       0.1169
     15  CG        72.6490  -22.1110   19.4200 C.2    90  ASN90       0.2627
     16  OD1       71.4250  -22.2320   19.3910 O.2    90  ASN90      -0.2716
     17  ND2       73.2570  -21.1640   20.1300 N.am   90  ASN90      -0.0877
     18  N         72.5050  -23.0660   15.1000 N.am   91  HIS91      -0.1961
     19  CA        72.3390  -22.2140   13.9260 C.3    91  HIS91       0.1787
     20  C         71.4820  -23.0230   12.9610 C.2    91  HIS91       0.2620
     21  O         71.9550  -23.9860   12.3470 O.2    91  HIS91      -0.2715
     22  CB        73.7010  -21.8950   13.2920 C.3    91  HIS91       0.0785
     23  CG        73.6550  -20.7880   12.2800 C.ar   91  HIS91       0.0821
     24  ND1       72.9680  -20.8940   11.0880 N.ar   91  HIS91      -0.2267
     25  CD2       74.1860  -19.5400   12.3000 C.ar   91  HIS91       0.1154
     26  CE1       73.0740  -19.7580   10.4200 C.ar   91  HIS91       0.1986
     27  NE2       73.8070  -18.9190   11.1330 N.ar   91  HIS91      -0.2212
     28  N         70.2200  -22.6280   12.8230 N.am   92  ASP92      -0.1971
     29  CA        69.3000  -23.3670   11.9760 C.3    92  ASP92       0.1709
     30  C         69.6350  -23.5070   10.4950 C.2    92  ASP92       0.2293
     31  O         69.4710  -24.5930    9.9440 O.2    92  ASP92      -0.2864
     32  CB        67.8560  -22.8520   12.1610 C.3    92  ASP92       0.1436
     33  CG        67.6950  -21.3620   11.8840 C.2    92  ASP92       0.3671
     34  OD1       68.6480  -20.6900   11.4380 O.co2  92  ASP92      -0.2456
     35  OD2       66.5710  -20.8660   12.1120 O.co2  92  ASP92      -0.2456
     36  N         75.1540  -24.0760   -0.4850 N.3   118  HIS118     -0.1241
     37  CA        75.1780  -22.8110    0.2510 C.3   118  HIS118      0.1621
     38  C         76.3690  -21.9490   -0.1700 C.2   118  HIS118      0.2264
     39  O         76.7490  -21.0210    0.5390 O.2   118  HIS118     -0.2867
     40  CB        75.2540  -23.0710    1.7650 C.3   118  HIS118      0.0745
     41  CG        74.8440  -21.8990    2.6090 C.ar  118  HIS118      0.0817
     42  ND1       73.5240  -21.5640    2.8230 N.ar  118  HIS118     -0.2268
     43  CD2       75.5780  -21.0060    3.3150 C.ar  118  HIS118      0.1154
     44  CE1       73.4630  -20.5180    3.6300 C.ar  118  HIS118      0.1986
     45  NE2       74.6950  -20.1590    3.9430 N.ar  118  HIS118     -0.2212
     46  N         76.5770  -18.0290   -0.0130 N.3   121  CYS121     -0.1221
     47  CA        75.3330  -17.5410    0.5900 C.3   121  CYS121      0.1808
     48  C         75.4280  -17.1320    2.0490 C.2   121  CYS121      0.2602
     49  O         76.2980  -17.5940    2.7910 O.2   121  CYS121     -0.2717
     50  CB        74.2400  -18.6140    0.5080 C.3   121  CYS121      0.0970
     51  SG        73.6870  -19.0640   -1.1350 S.3   121  CYS121     -0.0800
     52  N         74.5190  -16.2520    2.4590 N.am  122  THR122     -0.1939
     53  CA        74.4350  -15.8710    3.8610 C.3   122  THR122      0.2028
     54  C         73.0720  -16.4670    4.2100 C.2   122  THR122      0.2643
     55  O         72.2480  -16.6820    3.3090 O.2   122  THR122     -0.2714
     56  CB        74.4440  -14.3370    4.0710 C.3   122  THR122      0.1808
     57  OG1       74.6120  -14.0560    5.4690 O.3   122  THR122     -0.2208
     58  CG2       73.1430  -13.7080    3.5830 C.3   122  THR122      0.0379
     59  N         72.8270  -16.7530    5.4860 N.am  123  SER123     -0.1935
     60  CA        71.5590  -17.3610    5.8820 C.3   123  SER123      0.2055
     61  C         70.3370  -16.6090    5.3590 C.2   123  SER123      0.2642
     62  O         69.3570  -17.2210    4.9200 O.2   123  SER123     -0.2714
     63  CB        71.4820  -17.4730    7.4090 C.3   123  SER123      0.2130
     64  OG        72.5530  -18.2510    7.9100 O.3   123  SER123     -0.2179
     65  N         70.3880  -15.2830    5.4080 N.am  124  GLU124     -0.1976
     66  CA        69.2590  -14.4870    4.9430 C.3   124  GLU124      0.1602
     67  C         68.9550  -14.6460    3.4550 C.2   124  GLU124      0.2287
     68  O         67.8400  -14.3670    3.0270 O.2   124  GLU124     -0.2864
     69  CB        69.4580  -13.0070    5.3060 C.3   124  GLU124      0.0415
     70  CG        69.2780  -12.7360    6.8020 C.3   124  GLU124      0.1163
     71  CD        67.9390  -13.2530    7.3420 C.2   124  GLU124      0.3649
     72  OE1       67.9230  -13.8300    8.4490 O.co2 124  GLU124     -0.2457
     73  OE2       66.9050  -13.0850    6.6630 O.co2 124  GLU124     -0.2457
     74  N         66.6590  -17.5040    3.9530 N.3   127  ASN127     -0.1240
     75  CA        65.4780  -17.1040    4.7180 C.3   127  ASN127      0.1653
     76  C         64.4960  -16.1870    3.9860 C.2   127  ASN127      0.2266
     77  O         63.2980  -16.4730    3.9380 O.2   127  ASN127     -0.2867
     78  CB        65.8880  -16.4240    6.0330 C.3   127  ASN127      0.1155
     79  CG        66.6070  -17.3690    6.9840 C.2   127  ASN127      0.2627
     80  OD1       66.4040  -18.5830    6.9390 O.2   127  ASN127     -0.2716
     81  ND2       67.4360  -16.8130    7.8570 N.am  127  ASN127     -0.0877
     82  N         76.4880  -11.9210    2.5630 N.3   210  ALA210     -0.1245
     83  CA        76.5920  -11.3610    3.9160 C.3   210  ALA210      0.1562
     84  C         75.9780   -9.9890    4.1950 C.2   210  ALA210      0.2260
     85  O         75.2130   -9.8330    5.1460 O.2   210  ALA210     -0.2867
     86  CB        78.0720  -11.3520    4.3520 C.3   210  ALA210      0.0290
     87  N         72.0890   -7.2070    4.7900 N.3   247  GLN247     -0.1245
     88  CA        72.0890   -8.6540    4.9420 C.3   247  GLN247      0.1566
     89  C         70.6700   -9.1920    4.7730 C.2   247  GLN247      0.2260
     90  O         70.4770  -10.3000    4.2790 O.2   247  GLN247     -0.2867
     91  CB        72.6180   -9.0830    6.3160 C.3   247  GLN247      0.0367
     92  CG        72.6070  -10.5930    6.4860 C.3   247  GLN247      0.0905
     93  CD        73.2530  -11.0610    7.7720 C.2   247  GLN247      0.2608
     94  OE1       72.5670  -11.3780    8.7450 O.2   247  GLN247     -0.2717
     95  NE2       74.5860  -11.1040    7.7860 N.am  247  GLN247     -0.0878
     96  N         71.7850   -5.1020    9.8590 N.3   332  ARG332     -0.1245
     97  CA        70.7420   -5.9580   10.4530 C.3   332  ARG332      0.1563
     98  C         71.0010   -6.4700   11.8570 C.2   332  ARG332      0.2260
     99  O         72.1410   -6.7070   12.2530 O.2   332  ARG332     -0.2867
    100  CB        70.3480   -7.1540    9.5400 C.3   332  ARG332      0.0307
    101  CG        71.2150   -8.4440    9.5960 C.3   332  ARG332      0.0489
    102  CD        70.8940   -9.3570   10.8030 C.3   332  ARG332      0.2205
    103  NE        69.5170   -9.8800   10.8460 N.pl3 332  ARG332     -0.0865
    104  CZ        69.1000  -11.0070   10.2630 C.cat 332  ARG332      0.5346
    105  NH1       69.9440  -11.7610    9.5720 N.pl3 332  ARG332      0.1354
    106  NH2       67.8330  -11.3960   10.3850 N.pl3 332  ARG332      0.1354
    107  N         69.3090   -9.3980   14.6400 N.3   334  LEU334     -0.1245
    108  CA        68.5380  -10.6290   14.5190 C.3   334  LEU334      0.1561
    109  C         67.1520  -10.6920   15.1660 C.2   334  LEU334      0.2260
    110  O         66.5370  -11.7680   15.2070 O.2   334  LEU334     -0.2867
    111  CB        69.4020  -11.7930   15.0120 C.3   334  LEU334      0.0270
    112  CG        70.4580  -12.2030   13.9830 C.3   334  LEU334      0.0019
    113  CD1       71.5920  -12.9770   14.6450 C.3   334  LEU334      0.0001
    114  CD2       69.7750  -13.0310   12.9000 C.3   334  LEU334      0.0001
    115  N         64.3060  -12.3770   13.0650 N.3   337  SER337     -0.1202
    116  CA        64.2240  -13.8240   12.8640 C.3   337  SER337      0.2020
    117  C         63.0800  -14.4610   13.6480 C.2   337  SER337      0.2619
    118  O         62.2000  -15.0930   13.0670 O.2   337  SER337     -0.2717
    119  CB        65.5420  -14.5110   13.2520 C.3   337  SER337      0.2103
    120  OG        65.4060  -15.9210   13.1770 O.3   337  SER337     -0.2182
    121  N         63.0780  -14.2910   14.9650 N.am  338  THR338     -0.1952
    122  CA        62.0310  -14.8940   15.7800 C.3   338  THR338      0.1897
    123  C         60.6530  -14.3120   15.4400 C.2   338  THR338      0.2313
    124  O         59.6430  -15.0190   15.4500 O.2   338  THR338     -0.2863
    125  CB        62.3400  -14.7450   17.2970 C.3   338  THR338      0.1794
    126  OG1       61.4480  -15.5790   18.0470 O.3   338  THR338     -0.2208
    127  CG2       62.2000  -13.2920   17.7660 C.3   338  THR338      0.0378
    128  N         58.8000  -15.7920   12.4760 N.3   341  ARG341     -0.1245
    129  CA        58.2720  -17.1330   12.7060 C.3   341  ARG341      0.1563
    130  C         56.7860  -16.9910   13.0330 C.2   341  ARG341      0.2260
    131  O         56.0800  -17.9870   13.2120 O.2   341  ARG341     -0.2867
    132  CB        58.9990  -17.8090   13.8780 C.3   341  ARG341      0.0307
    133  CG        60.4990  -17.9490   13.6560 C.3   341  ARG341      0.0489
    134  CD        61.1730  -18.7230   14.7860 C.3   341  ARG341      0.2205
    135  NE        62.6230  -18.7490   14.6080 N.pl3 341  ARG341     -0.0865
    136  CZ        63.2700  -19.6030   13.8200 C.cat 341  ARG341      0.5346
    137  NH1       62.5930  -20.5200   13.1310 N.pl3 341  ARG341      0.1354
    138  NH2       64.5960  -19.5320   13.7100 N.pl3 341  ARG341      0.1354
@<TRIPOS>BOND
     1    51    50    1
     2    36    37    1
     3    38    37    1
     4    38    39    2
     5    46    47    1
     6    37    40    1
     7    50    47    1
     8    47    48    1
     9    40    41    1
    10    48    52   am
    11    48    49    2
    12    52    53    1
    13    82    83    1
    14    41    42   ar
    15    41    43   ar
    16    42    44   ar
    17    68    67    2
    18    55    54    2
    19    43    45   ar
    20    67    66    1
    21    58    56    1
    22    44    45   ar
    23    53    56    1
    24    53    54    1
    25    83    84    1
    26    83    86    1
    27    77    76    2
    28    74    75    1
    29    76    75    1
    30    56    57    1
    31    84    85    2
    32    54    59   am
    33    90    89    2
    34    75    78    1
    35    89    88    1
    36    87    88    1
    37    62    61    2
    38    88    91    1
    39    66    69    1
    40    66    65    1
    41    69    70    1
    42    61    65   am
    43    61    60    1
    44    59    60    1
    45    60    63    1
    46    78    79    1
    47    91    92    1
    48    92    93    1
    49    73    71   ar
    50    70    71    1
    51    80    79    2
    52    79    81   am
    53    71    72   ar
    54    63    64    1
    55    93    95   am
    56    93    94    2
    57   100   101    1
    58   100    97    1
    59   105   104    1
    60   101   102    1
    61    96    97    1
    62    31    30    2
    63   104   106    1
    64   104   103    2
    65    26    24   ar
    66    26    27   ar
    67    97    98    1
    68    30    29    1
    69   102   103    1
    70    24    23   ar
    71    27    25   ar
    72    34    33   ar
    73    98    99    2
    74    33    35   ar
    75    33    32    1
    76    29    32    1
    77    29    28    1
    78    23    25   ar
    79    23    22    1
    80    21    20    2
    81   128   129    1
    82   129   130    1
    83   129   132    1
    84    28    20   am
    85   116   115    1
    86   116   119    1
    87   116   117    1
    88   114   112    1
    89    20    19    1
    90   130   131    2
    91   118   117    2
    92   137   136    1
    93   120   119    1
    94    22    19    1
    95   117   121   am
    96   133   132    1
    97   133   134    1
    98   138   136    1
    99   136   135    2
   100    19    18    1
   101   112   113    1
   102   112   111    1
   103   108   107    1
   104   108   111    1
   105   108   109    1
   106     1     2    1
   107   135   134    1
   108     9     7   ar
   109     5     2    1
   110     5     6    1
   111   121   122    1
   112    18    12   am
   113     2     3    1
   114   109   110    2
   115     7     6    1
   116     7     8   ar
   117   123   124    2
   118   123   122    1
   119   122   125    1
   120    12    13    2
   121    12    11    1
   122     3     4    2
   123    10    11    1
   124   125   127    1
   125   125   126    1
   126    11    14    1
   127    14    15    1
   128    16    15    2
   129    15    17   am
