@<TRIPOS>MOLECULE
tmp/2ptrA00.pdb
 95 90 0 0 0
SMALL
GASTEIGER

@<TRIPOS>ATOM
      1  N         58.4570  -23.9950   17.6350 N.3    15  ARG15      -0.1231
      2  CA        59.8840  -23.9350   17.9470 C.3    15  ARG15       0.1694
      3  C         60.2110  -23.7240   19.4320 C.2    15  ARG15       0.2592
      4  O         61.1490  -24.3310   19.9610 O.2    15  ARG15      -0.2718
      5  CB        60.5360  -22.8340   17.0990 C.3    15  ARG15       0.0321
      6  CG        62.0570  -22.6760   17.2560 C.3    15  ARG15       0.0489
      7  CD        62.5790  -21.6420   16.2500 C.3    15  ARG15       0.2205
      8  NE        63.9750  -21.2360   16.4500 N.pl3  15  ARG15      -0.0865
      9  CZ        65.0480  -21.9660   16.1410 C.cat  15  ARG15       0.5346
     10  NH1       64.9220  -23.1770   15.6130 N.pl3  15  ARG15       0.1354
     11  NH2       66.2650  -21.4590   16.3230 N.pl3  15  ARG15       0.1354
     12  N         59.4330  -22.8850   20.1070 N.am   16  TYR16      -0.1976
     13  CA        59.6780  -22.5950   21.5150 C.3    16  TYR16       0.1639
     14  C         58.7440  -23.3360   22.4670 C.2    16  TYR16       0.2290
     15  O         58.6980  -23.0320   23.6590 O.2    16  TYR16      -0.2864
     16  CB        59.5650  -21.0860   21.7460 C.3    16  TYR16       0.0560
     17  CG        60.3560  -20.2810   20.7360 C.ar   16  TYR16      -0.0198
     18  CD1       61.7420  -20.4650   20.5930 C.ar   16  TYR16      -0.0009
     19  CD2       59.7220  -19.3620   19.9030 C.ar   16  TYR16      -0.0009
     20  CE1       62.4720  -19.7520   19.6410 C.ar   16  TYR16       0.0417
     21  CE2       60.4370  -18.6400   18.9470 C.ar   16  TYR16       0.0417
     22  CZ        61.8090  -18.8410   18.8210 C.ar   16  TYR16       0.1957
     23  OH        62.5040  -18.1320   17.8750 O.3    16  TYR16      -0.2866
     24  N         77.9370  -22.8730   15.6840 N.3   293  ILE293     -0.1231
     25  CA        78.2400  -22.0590   14.5190 C.3   293  ILE293      0.1692
     26  C         77.7090  -20.6490   14.7490 C.2   293  ILE293      0.2593
     27  O         76.5140  -20.4590   14.9650 O.2   293  ILE293     -0.2718
     28  CB        77.5600  -22.6550   13.2590 C.3   293  ILE293      0.0266
     29  CG1       78.0100  -24.1090   13.0610 C.3   293  ILE293      0.0019
     30  CG2       77.8690  -21.8020   12.0340 C.3   293  ILE293      0.0020
     31  CD1       79.4980  -24.2740   12.7600 C.3   293  ILE293      0.0001
     32  N         78.5970  -19.6640   14.7050 N.am  294  GLY294     -0.1942
     33  CA        78.1710  -18.2930   14.9110 C.3   294  GLY294      0.2014
     34  C         77.4200  -17.7410   13.7090 C.2   294  GLY294      0.2640
     35  O         76.3530  -17.1290   13.8520 O.2   294  GLY294     -0.2714
     36  N         77.9810  -17.9740   12.5270 N.am  295  SER295     -0.1935
     37  CA        77.4170  -17.5010   11.2650 C.3   295  SER295      0.2055
     38  C         77.6890  -18.5340   10.1730 C.2   295  SER295      0.2644
     39  O         78.7210  -19.1940   10.1900 O.2   295  SER295     -0.2714
     40  CB        78.0580  -16.1580   10.8980 C.3   295  SER295      0.2130
     41  OG        78.1490  -15.9840    9.5000 O.3   295  SER295     -0.2179
     42  N         76.7750  -18.6620    9.2150 N.am  296  SER296     -0.1935
     43  CA        76.9370  -19.6460    8.1500 C.3   296  SER296      0.2055
     44  C         78.0150  -19.3110    7.1170 C.2   296  SER296      0.2644
     45  O         78.5780  -20.2160    6.4970 O.2   296  SER296     -0.2714
     46  CB        75.6060  -19.8570    7.4130 C.3   296  SER296      0.2130
     47  OG        75.4000  -18.8530    6.4250 O.3   296  SER296     -0.2179
     48  N         78.3060  -18.0220    6.9510 N.am  297  THR297     -0.1936
     49  CA        79.2670  -17.5640    5.9510 C.3   297  THR297      0.2028
     50  C         80.4760  -16.7960    6.5030 C.2   297  THR297      0.2642
     51  O         81.5130  -16.7130    5.8460 O.2   297  THR297     -0.2714
     52  CB        78.5410  -16.6810    4.9010 C.3   297  THR297      0.1808
     53  OG1       79.4360  -16.3520    3.8330 O.3   297  THR297     -0.2208
     54  CG2       78.0290  -15.3990    5.5440 C.3   297  THR297      0.0379
     55  N         80.3360  -16.2230    7.6950 N.am  298  MET298     -0.1976
     56  CA        81.4280  -15.4870    8.3350 C.3   298  MET298      0.1605
     57  C         81.8400  -16.3080    9.5590 C.2   298  MET298      0.2287
     58  O         81.2850  -16.1510   10.6500 O.2   298  MET298     -0.2864
     59  CB        80.9650  -14.0840    8.7580 C.3   298  MET298      0.0413
     60  CG        80.6390  -13.1480    7.5880 C.3   298  MET298      0.0598
     61  SD        80.0450  -11.5160    8.1150 S.3   298  MET298     -0.1393
     62  CE        78.2840  -11.8660    8.3730 C.3   298  MET298      0.0692
     63  N         82.3440  -14.9610   13.4350 N.3   301  LYS301     -0.1245
     64  CA        81.2550  -14.4120   14.2400 C.3   301  LYS301      0.1561
     65  C         80.8170  -15.0660   15.5490 C.2   301  LYS301      0.2260
     66  O         80.7610  -16.2890   15.6800 O.2   301  LYS301     -0.2867
     67  CB        80.0010  -14.2570   13.3670 C.3   301  LYS301      0.0271
     68  CG        80.0500  -13.1440   12.3290 C.3   301  LYS301      0.0035
     69  CD        80.2010  -11.7700   12.9850 C.3   301  LYS301      0.0206
     70  CE        79.3730  -10.7130   12.2590 C.3   301  LYS301      0.1093
     71  NZ        77.8910  -10.9410   12.4430 N.3   301  LYS301     -0.1314
     72  N         77.6130  -13.9230   17.6920 N.3   303  ASN303     -0.1240
     73  CA        76.5100  -12.9690   17.7570 C.3   303  ASN303      0.1653
     74  C         75.6760  -13.0500   19.0410 C.2   303  ASN303      0.2266
     75  O         75.4850  -14.1280   19.6080 O.2   303  ASN303     -0.2867
     76  CB        75.5860  -13.1540   16.5470 C.3   303  ASN303      0.1155
     77  CG        76.3130  -13.0230   15.2200 C.2   303  ASN303      0.2627
     78  OD1       77.1600  -12.1470   15.0390 O.2   303  ASN303     -0.2716
     79  ND2       75.9670  -13.8880   14.2760 N.am  303  ASN303     -0.0877
     80  N         72.7870  -13.4500   19.8030 N.3   305  ILE305     -0.1245
     81  CA        71.4920  -13.9910   19.4120 C.3   305  ILE305      0.1561
     82  C         70.4780  -14.2040   20.5320 C.2   305  ILE305      0.2260
     83  O         69.2720  -14.1560   20.2910 O.2   305  ILE305     -0.2867
     84  CB        71.6560  -15.3130   18.6160 C.3   305  ILE305      0.0252
     85  CG1       72.1600  -16.4310   19.5300 C.3   305  ILE305      0.0019
     86  CG2       72.6210  -15.0970   17.4560 C.3   305  ILE305      0.0019
     87  CD1       72.2160  -17.7860   18.8450 C.3   305  ILE305      0.0001
     88  N         66.8550  -12.5140   20.3230 N.3   309  ASN309     -0.1240
     89  CA        65.6630  -13.3550   20.3530 C.3   309  ASN309      0.1653
     90  C         64.7260  -12.7630   21.4020 C.2   309  ASN309      0.2266
     91  O         63.5290  -12.6030   21.1690 O.2   309  ASN309     -0.2867
     92  CB        66.0340  -14.7880   20.7330 C.3   309  ASN309      0.1155
     93  CG        64.8190  -15.6680   20.9410 C.2   309  ASN309      0.2627
     94  OD1       64.2380  -15.6900   22.0240 O.2   309  ASN309     -0.2716
     95  ND2       64.4210  -16.3930   19.8990 N.am  309  ASN309     -0.0877
@<TRIPOS>BOND
     1    53    52    1
     2    52    54    1
     3    52    49    1
     4    51    50    2
     5    49    50    1
     6    49    48    1
     7    47    46    1
     8    45    44    2
     9    50    55   am
    10    48    44   am
    11    44    43    1
    12    46    43    1
    13    60    61    1
    14    60    59    1
    15    55    56    1
    16    61    62    1
    17    43    42    1
    18    56    59    1
    19    56    57    1
    20    42    38   am
    21    41    40    1
    22    57    58    2
    23    38    39    2
    24    38    37    1
    25    40    37    1
    26    37    36    1
    27    30    28    1
    28    70    71    1
    29    70    69    1
    30    68    69    1
    31    68    67    1
    32    36    34   am
    33    31    29    1
    34    29    28    1
    35    28    25    1
    36    67    64    1
    37    63    64    1
    38    34    35    2
    39    34    33    1
    40    64    65    1
    41    79    77   am
    42    25    26    1
    43    25    24    1
    44    32    26   am
    45    32    33    1
    46    26    27    2
    47    78    77    2
    48    77    76    1
    49    65    66    2
    50    10     9    1
    51     9    11    1
    52     9     8    2
    53     7     8    1
    54     7     6    1
    55    76    73    1
    56     5     6    1
    57     5     2    1
    58    86    84    1
    59     1     2    1
    60    72    73    1
    61    73    74    1
    62    23    22    1
    63     2     3    1
    64    84    81    1
    65    84    85    1
    66    22    21   ar
    67    22    20   ar
    68    87    85    1
    69    21    19   ar
    70    74    75    2
    71    81    80    1
    72    81    82    1
    73     3     4    2
    74     3    12   am
    75    20    18   ar
    76    95    93   am
    77    19    17   ar
    78    12    13    1
    79    83    82    2
    80    88    89    1
    81    89    92    1
    82    89    90    1
    83    18    17   ar
    84    92    93    1
    85    17    16    1
    86    93    94    2
    87    91    90    2
    88    13    16    1
    89    13    14    1
    90    14    15    2
