@<TRIPOS>MOLECULE
tmp/2ptyA00.pdb
 143 133 0 0 0
SMALL
GASTEIGER

@<TRIPOS>ATOM
      1  N          7.6160   32.6480   40.6610 N.3    40  GLY40      -0.1210
      2  CA         8.2580   31.3670   40.3590 C.3    40  GLY40       0.1956
      3  C          7.5240   30.1900   40.9470 C.2    40  GLY40       0.2612
      4  O          6.7280   30.3560   41.8650 O.2    40  GLY40      -0.2717
      5  N          7.7850   29.0100   40.3790 N.am   41  ALA41      -0.1965
      6  CA         7.3770   27.7310   40.9190 C.3    41  ALA41       0.1728
      7  C          8.5850   27.0370   41.5760 C.2    41  ALA41       0.2616
      8  O          8.4820   26.5290   42.7110 O.2    41  ALA41      -0.2715
      9  CB         6.8050   26.8600   39.8120 C.3    41  ALA41       0.0334
     10  N          9.7080   26.9860   40.8540 N.am   42  SER42      -0.1950
     11  CA        10.9400   26.4270   41.4020 C.3    42  SER42       0.1924
     12  C         11.7510   27.5740   42.0220 C.2    42  SER42       0.2314
     13  O         12.6760   28.1000   41.4200 O.2    42  SER42      -0.2863
     14  CB        11.7070   25.6240   40.3400 C.3    42  SER42       0.2116
     15  OG        12.2570   26.4250   39.3060 O.3    42  SER42      -0.2180
     16  N          7.3890   22.5830   35.9420 N.3   158  HIS158     -0.1241
     17  CA         6.6570   23.3610   34.8990 C.3   158  HIS158      0.1621
     18  C          5.8440   22.5040   33.9190 C.2   158  HIS158      0.2264
     19  O          5.2100   23.0530   32.9840 O.2   158  HIS158     -0.2867
     20  CB         7.6200   24.1810   34.0390 C.3   158  HIS158      0.0745
     21  CG         8.4760   25.1550   34.7950 C.ar  158  HIS158      0.0817
     22  ND1        9.5100   25.8370   34.1860 N.ar  158  HIS158     -0.2268
     23  CD2        8.4580   25.5700   36.0870 C.ar  158  HIS158      0.1154
     24  CE1       10.0960   26.6250   35.0700 C.ar  158  HIS158      0.1986
     25  NE2        9.4840   26.4760   36.2330 N.ar  158  HIS158     -0.2212
     26  N         14.3780   20.9000   34.2780 N.3   166  GLN166     -0.1231
     27  CA        13.3070   21.8220   34.0670 C.3   166  GLN166      0.1698
     28  C         13.2760   22.3930   32.6450 C.2   166  GLN166      0.2592
     29  O         12.1930   22.5270   32.0680 O.2   166  GLN166     -0.2718
     30  CB        13.3960   22.9080   35.1280 C.3   166  GLN166      0.0381
     31  CG        12.3510   24.0030   35.0600 C.3   166  GLN166      0.0905
     32  CD        12.5910   25.0440   36.1210 C.2   166  GLN166      0.2608
     33  OE1       13.1520   26.1080   35.8450 O.2   166  GLN166     -0.2717
     34  NE2       12.1880   24.7390   37.3510 N.am  166  GLN166     -0.0878
     35  N         14.4460   22.7080   32.0690 N.am  167  GLU167     -0.1979
     36  CA        14.4460   23.5180   30.8470 C.3   167  GLU167      0.1602
     37  C         15.4380   23.0210   29.8410 C.2   167  GLU167      0.2287
     38  O         16.6150   22.8620   30.1530 O.2   167  GLU167     -0.2864
     39  CB        14.6960   25.0090   31.1460 C.3   167  GLU167      0.0415
     40  CG        13.7710   25.5630   32.2450 C.3   167  GLU167      0.1163
     41  CD        13.9600   27.0290   32.5370 C.2   167  GLU167      0.3649
     42  OE1       14.6380   27.7330   31.7380 O.co2 167  GLU167     -0.2457
     43  OE2       13.4020   27.4760   33.5760 O.co2 167  GLU167     -0.2457
     44  N          5.7980   27.2700   30.4400 N.3   210  GLU210     -0.1245
     45  CA         6.5430   28.2670   29.6890 C.3   210  GLU210      0.1567
     46  C          6.3920   28.1440   28.1700 C.2   210  GLU210      0.2260
     47  O          7.1510   28.7340   27.4270 O.2   210  GLU210     -0.2867
     48  CB         8.0150   28.2320   30.1230 C.3   210  GLU210      0.0388
     49  CG         8.1970   28.6600   31.5770 C.3   210  GLU210      0.1160
     50  CD         9.6390   28.8630   31.9520 C.2   210  GLU210      0.3649
     51  OE1       10.5040   28.5820   31.0950 O.co2 210  GLU210     -0.2457
     52  OE2        9.9060   29.3100   33.0980 O.co2 210  GLU210     -0.2457
     53  N         18.4710   24.4530   31.7820 N.3   245  ASP245     -0.1239
     54  CA        18.2990   24.7760   33.2030 C.3   245  ASP245      0.1674
     55  C         17.8740   23.5110   33.9240 C.2   245  ASP245      0.2266
     56  O         16.7470   23.0830   33.7910 O.2   245  ASP245     -0.2867
     57  CB        17.2420   25.8790   33.4270 C.3   245  ASP245      0.1410
     58  CG        17.0690   26.2410   34.8930 C.2   245  ASP245      0.3668
     59  OD1       17.6870   25.6530   35.8030 O.co2 245  ASP245     -0.2456
     60  OD2       16.2710   27.1120   35.1670 O.co2 245  ASP245     -0.2456
     61  N         17.5810   23.1590   37.1800 N.3   247  ALA247     -0.1245
     62  CA        16.9110   23.5110   38.4370 C.3   247  ALA247      0.1562
     63  C         17.1240   22.3830   39.4560 C.2   247  ALA247      0.2260
     64  O         16.1570   21.8740   40.0400 O.2   247  ALA247     -0.2867
     65  CB        15.4460   23.7540   38.2140 C.3   247  ALA247      0.0290
     66  N         22.3130   26.1180   33.4410 N.3   293  GLU293     -0.1245
     67  CA        21.8550   26.8070   34.6280 C.3   293  GLU293      0.1567
     68  C         21.5610   25.8280   35.7920 C.2   293  GLU293      0.2260
     69  O         21.0420   24.7190   35.5850 O.2   293  GLU293     -0.2867
     70  CB        20.6340   27.6440   34.2760 C.3   293  GLU293      0.0388
     71  CG        20.0830   28.4400   35.3950 C.3   293  GLU293      0.1160
     72  CD        18.7680   29.0810   35.0070 C.2   293  GLU293      0.3649
     73  OE1       18.5960   29.4180   33.8000 O.co2 293  GLU293     -0.2457
     74  OE2       17.9030   29.2210   35.9080 O.co2 293  GLU293     -0.2457
     75  N         21.2790   30.6290   39.4320 N.3   320  ASP320     -0.1225
     76  CA        19.9180   31.1510   39.5190 C.3   320  ASP320      0.1805
     77  C         19.4240   31.0410   40.9760 C.2   320  ASP320      0.2597
     78  O         19.3380   32.0520   41.6920 O.2   320  ASP320     -0.2718
     79  CB        18.9710   30.4480   38.5220 C.3   320  ASP320      0.1424
     80  CG        17.5100   30.7540   38.8120 C.2   320  ASP320      0.3668
     81  OD1       17.2310   31.8840   39.2640 O.co2 320  ASP320     -0.2456
     82  OD2       16.6450   29.8700   38.6090 O.co2 320  ASP320     -0.2456
     83  N         19.1160   29.8210   41.4200 N.am  321  ASP321     -0.1974
     84  CA        18.8230   29.5740   42.8450 C.3   321  ASP321      0.1709
     85  C         20.0720   29.7510   43.7290 C.2   321  ASP321      0.2293
     86  O         19.9810   30.0460   44.9330 O.2   321  ASP321     -0.2864
     87  CB        18.1950   28.1800   43.0470 C.3   321  ASP321      0.1436
     88  CG        16.7770   28.0860   42.4860 C.2   321  ASP321      0.3671
     89  OD1       16.3330   26.9880   42.1160 O.co2 321  ASP321     -0.2456
     90  OD2       16.1140   29.1300   42.3940 O.co2 321  ASP321     -0.2456
     91  N         21.6160   34.5560   36.3170 N.3   343  LEU343     -0.1245
     92  CA        20.2290   34.6810   35.9600 C.3   343  LEU343      0.1561
     93  C         19.6100   35.8180   36.7830 C.2   343  LEU343      0.2260
     94  O         19.4470   35.6930   37.9980 O.2   343  LEU343     -0.2867
     95  CB        19.4510   33.3520   36.1550 C.3   343  LEU343      0.0270
     96  CG        18.2200   33.3550   35.2530 C.3   343  LEU343      0.0019
     97  CD1       18.6100   32.9720   33.7960 C.3   343  LEU343      0.0001
     98  CD2       17.1890   32.4240   35.8440 C.3   343  LEU343      0.0001
     99  N         16.6500   37.9630   37.9250 N.3   345  LYS345     -0.1245
    100  CA        15.2110   37.8860   38.1870 C.3   345  LYS345      0.1561
    101  C         14.9190   39.0270   39.1560 C.2   345  LYS345      0.2260
    102  O         15.2580   38.9770   40.3630 O.2   345  LYS345     -0.2867
    103  CB        14.8500   36.5490   38.8130 C.3   345  LYS345      0.0271
    104  CG        14.6590   35.4180   37.8100 C.3   345  LYS345      0.0035
    105  CD        14.6650   34.0760   38.5290 C.3   345  LYS345      0.0206
    106  CE        14.1460   32.9620   37.5920 C.3   345  LYS345      0.1093
    107  NZ        14.4080   31.6440   38.2340 N.3   345  LYS345     -0.1314
    108  N         12.5350   35.8070   32.8350 N.3   373  HIS373     -0.1226
    109  CA        11.1580   35.6820   33.3430 C.3   373  HIS373      0.1752
    110  C         11.0770   34.7650   34.5730 C.2   373  HIS373      0.2596
    111  O         12.1020   34.1910   35.0210 O.2   373  HIS373     -0.2718
    112  CB        10.2950   35.1380   32.2140 C.3   373  HIS373      0.0759
    113  CG        10.6680   33.7480   31.7850 C.ar  373  HIS373      0.0818
    114  ND1        9.8720   33.0000   30.9510 N.ar  373  HIS373     -0.2268
    115  CD2       11.7760   32.9950   32.0170 C.ar  373  HIS373      0.1154
    116  CE1       10.4540   31.8360   30.7040 C.ar  373  HIS373      0.1986
    117  NE2       11.6220   31.8110   31.3330 N.ar  373  HIS373     -0.2212
    118  N          9.8650   34.6110   35.1060 N.am  374  ARG374     -0.1966
    119  CA         9.5160   33.5380   36.0230 C.3   374  ARG374      0.1729
    120  C          8.5690   32.5900   35.3250 C.2   374  ARG374      0.2616
    121  O          8.0020   32.9240   34.3060 O.2   374  ARG374     -0.2715
    122  CB         8.8110   34.0760   37.2810 C.3   374  ARG374      0.0348
    123  CG         9.6040   35.0160   38.1270 C.3   374  ARG374      0.0492
    124  CD        11.0320   34.5620   38.4180 C.3   374  ARG374      0.2205
    125  NE        11.1590   33.2800   39.1230 N.pl3 374  ARG374     -0.0865
    126  CZ        11.6000   33.1340   40.3780 C.cat 374  ARG374      0.5346
    127  NH1       11.8850   34.2070   41.1140 N.pl3 374  ARG374      0.1354
    128  NH2       11.7330   31.9020   40.9180 N.pl3 374  ARG374      0.1354
    129  N          8.3510   31.4110   35.8810 N.am  375  SER375     -0.1950
    130  CA         7.4440   30.4860   35.1930 C.3   375  SER375      0.1924
    131  C          5.9900   30.9270   35.3000 C.2   375  SER375      0.2314
    132  O          5.1610   30.5240   34.4740 O.2   375  SER375     -0.2863
    133  CB         7.6090   29.0480   35.6750 C.3   375  SER375      0.2116
    134  OG         7.3000   28.9570   37.0560 O.3   375  SER375     -0.2180
    135  N         16.2370   34.7850   28.6860 N.3   396  LYS396     -0.1245
    136  CA        15.2910   33.7200   28.5210 C.3   396  LYS396      0.1561
    137  C         13.9330   34.2110   28.9720 C.2   396  LYS396      0.2260
    138  O         13.7620   34.7910   30.0560 O.2   396  LYS396     -0.2867
    139  CB        15.7080   32.4050   29.2050 C.3   396  LYS396      0.0271
    140  CG        15.7460   32.4070   30.7030 C.3   396  LYS396      0.0035
    141  CD        15.9280   30.9540   31.2420 C.3   396  LYS396      0.0206
    142  CE        15.3870   30.8240   32.6460 C.3   396  LYS396      0.1093
    143  NZ        15.9080   29.5080   33.2550 N.3   396  LYS396     -0.1314
@<TRIPOS>BOND
     1    47    46    2
     2    46    45    1
     3   136   135    1
     4   136   137    1
     5   136   139    1
     6   137   138    2
     7   139   140    1
     8    45    48    1
     9    45    44    1
    10    37    38    2
    11    37    36    1
    12    48    49    1
    13   140   141    1
    14   116   114   ar
    15   116   117   ar
    16    36    39    1
    17    36    35    1
    18   114   113   ar
    19    51    50   ar
    20    39    40    1
    21   141   142    1
    22   117   115   ar
    23    49    50    1
    24    42    41   ar
    25    53    54    1
    26   113   115   ar
    27   113   112    1
    28    50    52   ar
    29    29    28    2
    30    35    28   am
    31   112   109    1
    32    40    41    1
    33    41    43   ar
    34    28    27    1
    35   142   143    1
    36   108   109    1
    37    19    18    2
    38    54    57    1
    39    54    55    1
    40   109   110    1
    41    57    58    1
    42    66    67    1
    43    56    55    2
    44    97    96    1
    45    73    72   ar
    46    18    17    1
    47    20    21    1
    48    20    17    1
    49    27    26    1
    50    27    30    1
    51    22    21   ar
    52    22    24   ar
    53    70    67    1
    54    70    71    1
    55   121   120    2
    56   132   131    2
    57   110   111    2
    58   110   118   am
    59    67    68    1
    60    21    23   ar
    61    58    60   ar
    62    58    59   ar
    63    17    16    1
    64    72    71    1
    65    72    74   ar
    66    31    30    1
    67    31    32    1
    68    24    25   ar
    69   118   119    1
    70   130   131    1
    71   130   133    1
    72   130   129    1
    73    96    98    1
    74    96    95    1
    75   120   129   am
    76   120   119    1
    77    69    68    2
    78   133   134    1
    79    33    32    2
    80    92    95    1
    81    92    91    1
    82    92    93    1
    83   119   122    1
    84    23    25   ar
    85    32    34   am
    86    93    94    2
    87    61    62    1
    88   122   123    1
    89   106   107    1
    90   106   105    1
    91   104   105    1
    92   104   103    1
    93    99   100    1
    94   123   124    1
    95   100   103    1
    96   100   101    1
    97    65    62    1
    98   124   125    1
    99    62    63    1
   100    79    80    1
   101    79    76    1
   102    82    80   ar
   103    80    81   ar
   104   125   126    2
   105   101   102    2
   106    15    14    1
   107    75    76    1
   108    63    64    2
   109    76    77    1
   110     9     6    1
   111    14    11    1
   112     2     1    1
   113     2     3    1
   114   126   128    1
   115   126   127    1
   116     5     6    1
   117     5     3   am
   118    10    11    1
   119    10     7   am
   120     6     7    1
   121     3     4    2
   122    77    83   am
   123    77    78    2
   124    11    12    1
   125    13    12    2
   126    83    84    1
   127     7     8    2
   128    89    88   ar
   129    90    88   ar
   130    88    87    1
   131    84    87    1
   132    84    85    1
   133    85    86    2
