@<TRIPOS>MOLECULE
tmp/2pu1A00.pdb
 139 129 0 0 0
SMALL
GASTEIGER

@<TRIPOS>ATOM
      1  N         29.6460   22.6600  -13.8900 N.3    40  GLY40      -0.1210
      2  CA        28.9990   23.9730  -14.1130 C.3    40  GLY40       0.1956
      3  C         29.7400   25.1510  -13.5250 C.2    40  GLY40       0.2612
      4  O         30.5240   25.0220  -12.5740 O.2    40  GLY40      -0.2717
      5  N         29.4780   26.3250  -14.0920 N.am   41  ALA41      -0.1965
      6  CA        29.9200   27.5970  -13.5360 C.3    41  ALA41       0.1728
      7  C         28.7090   28.2900  -12.8580 C.2    41  ALA41       0.2616
      8  O         28.7750   28.6570  -11.6690 O.2    41  ALA41      -0.2715
      9  CB        30.5300   28.4680  -14.6380 C.3    41  ALA41       0.0334
     10  N         27.6020   28.4260  -13.5880 N.am   42  SER42      -0.1950
     11  CA        26.3620   28.9580  -12.9990 C.3    42  SER42       0.1924
     12  C         25.5420   27.8080  -12.3310 C.2    42  SER42       0.2314
     13  O         24.4650   27.4150  -12.7760 O.2    42  SER42      -0.2863
     14  CB        25.5700   29.7880  -14.0160 C.3    42  SER42       0.2116
     15  OG        25.3330   29.0440  -15.1840 O.3    42  SER42      -0.2180
     16  N         22.6720   34.5950  -20.2580 N.3   166  GLN166     -0.1231
     17  CA        23.7670   33.7080  -20.4840 C.3   166  GLN166      0.1698
     18  C         23.8770   33.1710  -21.8980 C.2   166  GLN166      0.2592
     19  O         24.9830   33.0650  -22.4150 O.2   166  GLN166     -0.2718
     20  CB        23.6610   32.5700  -19.4970 C.3   166  GLN166      0.0381
     21  CG        24.8520   31.6530  -19.4050 C.3   166  GLN166      0.0905
     22  CD        24.5180   30.5870  -18.3890 C.2   166  GLN166      0.2608
     23  OE1       23.8540   29.5750  -18.7120 O.2   166  GLN166     -0.2717
     24  NE2       24.8330   30.8740  -17.1350 N.am  166  GLN166     -0.0878
     25  N         22.7680   32.7650  -22.5090 N.am  167  GLU167     -0.1979
     26  CA        22.8970   32.0110  -23.7690 C.3   167  GLU167      0.1602
     27  C         21.8670   32.4560  -24.7780 C.2   167  GLU167      0.2287
     28  O         20.6780   32.5250  -24.4670 O.2   167  GLU167     -0.2864
     29  CB        22.7660   30.5020  -23.5410 C.3   167  GLU167      0.0415
     30  CG        23.5970   29.9830  -22.3940 C.3   167  GLU167      0.1163
     31  CD        23.4230   28.4960  -22.1610 C.2   167  GLU167      0.3649
     32  OE1       22.6230   27.8140  -22.8900 O.co2 167  GLU167     -0.2457
     33  OE2       24.0840   28.0340  -21.2090 O.co2 167  GLU167     -0.2457
     34  N         31.5550   28.0570  -24.1670 N.3   210  GLU210     -0.1245
     35  CA        30.8410   27.0670  -24.9500 C.3   210  GLU210      0.1567
     36  C         30.9970   27.2250  -26.4740 C.2   210  GLU210      0.2260
     37  O         30.2490   26.5960  -27.2520 O.2   210  GLU210     -0.2867
     38  CB        29.3700   27.0120  -24.5250 C.3   210  GLU210      0.0388
     39  CG        29.2140   26.6620  -23.0360 C.3   210  GLU210      0.1160
     40  CD        27.7510   26.5130  -22.6520 C.2   210  GLU210      0.3649
     41  OE1       26.8880   26.7110  -23.5260 O.co2 210  GLU210     -0.2457
     42  OE2       27.4620   26.1920  -21.4710 O.co2 210  GLU210     -0.2457
     43  N         18.8790   30.8860  -22.7840 N.3   245  ASP245     -0.1239
     44  CA        19.0990   30.5500  -21.3790 C.3   245  ASP245      0.1674
     45  C         19.4440   31.8250  -20.6370 C.2   245  ASP245      0.2266
     46  O         20.5420   32.3710  -20.7900 O.2   245  ASP245     -0.2867
     47  CB        20.1790   29.4790  -21.1670 C.3   245  ASP245      0.1410
     48  CG        20.3490   29.1100  -19.6670 C.2   245  ASP245      0.3668
     49  OD1       19.6180   29.6250  -18.7890 O.co2 245  ASP245     -0.2456
     50  OD2       21.2100   28.2740  -19.3610 O.co2 245  ASP245     -0.2456
     51  N         19.5860   32.1850  -17.3230 N.3   247  ALA247     -0.1245
     52  CA        20.2690   31.9150  -16.0510 C.3   247  ALA247      0.1562
     53  C         20.0040   33.0490  -15.0350 C.2   247  ALA247      0.2260
     54  O         20.9270   33.6090  -14.4060 O.2   247  ALA247     -0.2867
     55  CB        21.7530   31.6720  -16.2740 C.3   247  ALA247      0.0290
     56  N         14.8630   29.1760  -21.1310 N.3   293  GLU293     -0.1245
     57  CA        15.3190   28.4950  -19.9420 C.3   293  GLU293      0.1567
     58  C         15.7000   29.4400  -18.7940 C.2   293  GLU293      0.2260
     59  O         16.2940   30.4860  -19.0190 O.2   293  GLU293     -0.2867
     60  CB        16.5050   27.6290  -20.3180 C.3   293  GLU293      0.0388
     61  CG        17.1250   26.8560  -19.1670 C.3   293  GLU293      0.1160
     62  CD        18.5300   26.3550  -19.5470 C.2   293  GLU293      0.3649
     63  OE1       18.8230   26.1930  -20.7450 O.co2 293  GLU293     -0.2457
     64  OE2       19.3610   26.2070  -18.6430 O.co2 293  GLU293     -0.2457
     65  N         16.1060   24.7300  -15.2600 N.3   320  ASP320     -0.1225
     66  CA        17.4740   24.1940  -15.1790 C.3   320  ASP320      0.1805
     67  C         17.8910   24.2880  -13.7250 C.2   320  ASP320      0.2597
     68  O         17.8500   23.2780  -13.0130 O.2   320  ASP320     -0.2718
     69  CB        18.4130   24.8810  -16.1950 C.3   320  ASP320      0.1424
     70  CG        19.8890   24.6850  -15.8560 C.2   320  ASP320      0.3668
     71  OD1       20.2230   23.6250  -15.3240 O.co2 320  ASP320     -0.2456
     72  OD2       20.6890   25.6090  -16.1210 O.co2 320  ASP320     -0.2456
     73  N         18.2250   25.4940  -13.2500 N.am  321  ASP321     -0.1974
     74  CA        18.4270   25.6980  -11.8100 C.3   321  ASP321      0.1709
     75  C         17.1510   25.4810  -10.9690 C.2   321  ASP321      0.2293
     76  O         17.2420   25.1410   -9.7920 O.2   321  ASP321     -0.2864
     77  CB        19.0440   27.0810  -11.5260 C.3   321  ASP321      0.1436
     78  CG        20.4440   27.2450  -12.1790 C.2   321  ASP321      0.3671
     79  OD1       20.7860   28.3780  -12.5650 O.co2 321  ASP321     -0.2456
     80  OD2       21.1810   26.2410  -12.2840 O.co2 321  ASP321     -0.2456
     81  N         15.6050   20.7060  -18.3060 N.3   343  LEU343     -0.1245
     82  CA        17.0040   20.6710  -18.7350 C.3   343  LEU343      0.1561
     83  C         17.7190   19.5140  -17.9840 C.2   343  LEU343      0.2260
     84  O         17.8830   19.5630  -16.7600 O.2   343  LEU343     -0.2867
     85  CB        17.7500   22.0060  -18.5180 C.3   343  LEU343      0.0270
     86  CG        19.0340   22.0270  -19.4070 C.3   343  LEU343      0.0019
     87  CD1       18.7240   22.3420  -20.9000 C.3   343  LEU343      0.0001
     88  CD2       20.1410   23.0080  -18.8780 C.3   343  LEU343      0.0001
     89  N         20.6020   17.3200  -16.7240 N.3   345  LYS345     -0.1245
     90  CA        22.0450   17.4090  -16.4660 C.3   345  LYS345      0.1561
     91  C         22.3870   16.2860  -15.4970 C.2   345  LYS345      0.2260
     92  O         22.0480   16.3550  -14.2910 O.2   345  LYS345     -0.2867
     93  CB        22.3400   18.7730  -15.8640 C.3   345  LYS345      0.0271
     94  CG        22.6490   19.8640  -16.9300 C.3   345  LYS345      0.0035
     95  CD        22.6870   21.2060  -16.2030 C.3   345  LYS345      0.0206
     96  CE        23.0480   22.3550  -17.2360 C.3   345  LYS345      0.1093
     97  NZ        22.8680   23.7120  -16.5940 N.3   345  LYS345     -0.1314
     98  N         21.4600   18.1610  -21.6970 N.3   372  SER372     -0.1202
     99  CA        22.4280   19.2890  -21.6840 C.3   372  SER372      0.2020
    100  C         23.8540   18.9250  -21.2300 C.2   372  SER372      0.2619
    101  O         24.0680   18.1110  -20.2950 O.2   372  SER372     -0.2717
    102  CB        21.8800   20.4130  -20.7650 C.3   372  SER372      0.2103
    103  OG        22.7590   21.5460  -20.6900 O.3   372  SER372     -0.2182
    104  N         24.8150   19.6180  -21.8370 N.am  373  HIS373     -0.1961
    105  CA        26.1900   19.7170  -21.3150 C.3   373  HIS373      0.1787
    106  C         26.2440   20.6100  -20.0560 C.2   373  HIS373      0.2620
    107  O         25.2010   21.1500  -19.6140 O.2   373  HIS373     -0.2715
    108  CB        27.0870   20.2940  -22.4120 C.3   373  HIS373      0.0785
    109  CG        26.6920   21.6910  -22.8440 C.ar  373  HIS373      0.0821
    110  ND1       27.4660   22.4470  -23.7060 N.ar  373  HIS373     -0.2267
    111  CD2       25.6270   22.4690  -22.5100 C.ar  373  HIS373      0.1154
    112  CE1       26.8760   23.6200  -23.9010 C.ar  373  HIS373      0.1986
    113  NE2       25.7560   23.6530  -23.1880 N.ar  373  HIS373     -0.2212
    114  N         27.4440   20.7730  -19.5000 N.am  374  ARG374     -0.1963
    115  CA        27.7590   21.9060  -18.6010 C.3   374  ARG374      0.1729
    116  C         28.7000   22.8770  -19.3010 C.2   374  ARG374      0.2616
    117  O         29.2920   22.5340  -20.3200 O.2   374  ARG374     -0.2715
    118  CB        28.4750   21.4340  -17.3130 C.3   374  ARG374      0.0348
    119  CG        27.6280   20.4080  -16.4820 C.3   374  ARG374      0.0492
    120  CD        26.1980   20.8820  -16.1850 C.3   374  ARG374      0.2205
    121  NE        26.0110   22.1970  -15.5100 N.pl3 374  ARG374     -0.0865
    122  CZ        25.6460   22.3150  -14.2230 C.cat 374  ARG374      0.5346
    123  NH1       25.5100   21.2000  -13.4430 N.pl3 374  ARG374      0.1354
    124  NH2       25.3820   23.5070  -13.7240 N.pl3 374  ARG374      0.1354
    125  N         28.8150   24.0910  -18.7650 N.am  375  SER375     -0.1950
    126  CA        29.7090   25.0910  -19.3940 C.3   375  SER375      0.1924
    127  C         31.1810   24.6030  -19.2800 C.2   375  SER375      0.2314
    128  O         31.9880   24.9380  -20.1500 O.2   375  SER375     -0.2863
    129  CB        29.5150   26.5090  -18.7860 C.3   375  SER375      0.2116
    130  OG        29.8080   26.4990  -17.3910 O.3   375  SER375     -0.2180
    131  N         21.2610   20.4820  -25.9490 N.3   396  LYS396     -0.1245
    132  CA        22.1610   21.6300  -26.0640 C.3   396  LYS396      0.1561
    133  C         23.5440   21.1680  -25.6140 C.2   396  LYS396      0.2260
    134  O         23.7380   20.6410  -24.5070 O.2   396  LYS396     -0.2867
    135  CB        21.6710   22.9430  -25.4000 C.3   396  LYS396      0.0271
    136  CG        21.4850   22.9440  -23.9360 C.3   396  LYS396      0.0035
    137  CD        21.2750   24.4200  -23.4190 C.3   396  LYS396      0.0206
    138  CE        21.8980   24.4930  -22.0180 C.3   396  LYS396      0.1093
    139  NZ        21.5420   25.7680  -21.3120 N.3   396  LYS396     -0.1314
@<TRIPOS>BOND
     1    37    36    2
     2    36    35    1
     3   132   131    1
     4   132   133    1
     5   132   135    1
     6   133   134    2
     7   135   136    1
     8    35    38    1
     9    35    34    1
    10    27    28    2
    11    27    26    1
    12    38    39    1
    13   136   137    1
    14   112   110   ar
    15   112   113   ar
    16    26    29    1
    17    26    25    1
    18   110   109   ar
    19    29    30    1
    20    41    40   ar
    21   137   138    1
    22   113   111   ar
    23    39    40    1
    24    32    31   ar
    25   109   111   ar
    26   109   108    1
    27    43    44    1
    28    40    42   ar
    29    25    18   am
    30    19    18    2
    31   108   105    1
    32    30    31    1
    33    31    33   ar
    34   138   139    1
    35    18    17    1
    36   104   105    1
    37   104   100   am
    38    98    99    1
    39    99   100    1
    40    99   102    1
    41    44    47    1
    42    44    45    1
    43   105   106    1
    44   100   101    2
    45    47    48    1
    46    56    57    1
    47    87    86    1
    48    46    45    2
    49   102   103    1
    50    63    62   ar
    51    17    16    1
    52    17    20    1
    53   117   116    2
    54    60    57    1
    55    60    61    1
    56   128   127    2
    57   106   107    2
    58   106   114   am
    59    57    58    1
    60    48    50   ar
    61    48    49   ar
    62    62    61    1
    63    62    64   ar
    64   114   115    1
    65    20    21    1
    66    86    88    1
    67    86    85    1
    68    21    22    1
    69   126   127    1
    70   126   129    1
    71   126   125    1
    72   116   125   am
    73   116   115    1
    74    59    58    2
    75   129   130    1
    76    82    85    1
    77    82    81    1
    78    82    83    1
    79    23    22    2
    80   115   118    1
    81    22    24   am
    82    83    84    2
    83    51    52    1
    84   118   119    1
    85    96    97    1
    86    96    95    1
    87    94    95    1
    88    94    93    1
    89    89    90    1
    90   119   120    1
    91    90    93    1
    92    90    91    1
    93    55    52    1
    94    69    70    1
    95    69    66    1
    96   120   121    1
    97    72    70   ar
    98    52    53    1
    99    70    71   ar
   100   121   122    2
   101    91    92    2
   102    65    66    1
   103    15    14    1
   104    66    67    1
   105    53    54    2
   106     9     6    1
   107   122   124    1
   108   122   123    1
   109     2     1    1
   110     2     3    1
   111     5     6    1
   112     5     3   am
   113    14    11    1
   114    67    73   am
   115    67    68    2
   116    10    11    1
   117    10     7   am
   118     6     7    1
   119     3     4    2
   120    73    74    1
   121    11    12    1
   122     7     8    2
   123    13    12    2
   124    79    78   ar
   125    80    78   ar
   126    78    77    1
   127    74    77    1
   128    74    75    1
   129    75    76    2
