@<TRIPOS>MOLECULE
tmp/2pu2A00.pdb
 137 128 0 0 0
SMALL
GASTEIGER

@<TRIPOS>ATOM
      1  N         27.1590    1.4480   16.0320 N.3    61  SER61      -0.1217
      2  CA        28.5260    1.9020   16.3400 C.3    61  SER61       0.1889
      3  C         29.3680    1.0110   17.2580 C.2    61  SER61       0.2288
      4  O         30.5700    1.2500   17.3830 O.2    61  SER61      -0.2866
      5  CB        28.5120    3.3070   16.9240 C.3    61  SER61       0.2089
      6  OG        27.9720    4.1880   15.9490 O.3    61  SER61      -0.2183
      7  N         32.4630   -0.0170   15.5820 N.3    64  LYS64      -0.1245
      8  CA        33.7290    0.7350   15.6920 C.3    64  LYS64       0.1561
      9  C         34.8010    0.0340   16.5150 C.2    64  LYS64       0.2260
     10  O         35.9910    0.2630   16.2840 O.2    64  LYS64      -0.2867
     11  CB        33.4870    2.1530   16.2240 C.3    64  LYS64       0.0271
     12  CG        32.6110    3.0120   15.3280 C.3    64  LYS64       0.0035
     13  CD        32.3880    4.3860   15.9420 C.3    64  LYS64       0.0206
     14  CE        31.6130    5.3550   15.0590 C.3    64  LYS64       0.1093
     15  NZ        30.2290    4.8870   14.6930 N.3    64  LYS64      -0.1314
     16  N         29.5790   14.0790   12.4010 N.3   116  LEU116     -0.1231
     17  CA        28.9880   12.8680   12.9510 C.3   116  LEU116      0.1693
     18  C         28.6390   11.8810   11.8360 C.2   116  LEU116      0.2591
     19  O         28.9510   10.6970   11.9400 O.2   116  LEU116     -0.2718
     20  CB        27.7180   13.2040   13.7520 C.3   116  LEU116      0.0284
     21  CG        27.0250   11.9910   14.3940 C.3   116  LEU116      0.0019
     22  CD1       27.9830   11.1760   15.2290 C.3   116  LEU116      0.0001
     23  CD2       25.8220   12.4700   15.2390 C.3   116  LEU116      0.0001
     24  N         28.0160   12.4020   10.7840 N.am  117  GLN117     -0.1979
     25  CA        27.4990   11.6060    9.6670 C.3   117  GLN117      0.1601
     26  C         28.1740   11.9980    8.3480 C.2   117  GLN117      0.2287
     27  O         28.4380   13.1970    8.0710 O.2   117  GLN117     -0.2864
     28  CB        25.9830   11.8350    9.5430 C.3   117  GLN117      0.0394
     29  CG        25.1540   11.4830   10.7930 C.3   117  GLN117      0.0908
     30  CD        24.1710   12.6060   11.2560 C.2   117  GLN117      0.2608
     31  OE1       24.5430   13.7880   11.3820 O.2   117  GLN117     -0.2717
     32  NE2       22.9310   12.2170   11.5320 N.am  117  GLN117     -0.0878
     33  N         32.8270   13.0860   18.4090 N.3   147  TYR147     -0.1241
     34  CA        32.3920   11.7730   17.9340 C.3   147  TYR147      0.1605
     35  C         31.8620   11.8520   16.5020 C.2   147  TYR147      0.2264
     36  O         31.0210   12.7050   16.1680 O.2   147  TYR147     -0.2867
     37  CB        31.3510   11.1980   18.8760 C.3   147  TYR147      0.0534
     38  CG        30.9670    9.7530   18.6010 C.ar  147  TYR147     -0.0201
     39  CD1       29.7730    9.4550   17.9410 C.ar  147  TYR147     -0.0009
     40  CD2       31.7800    8.6940   18.9980 C.ar  147  TYR147     -0.0009
     41  CE1       29.3940    8.1330   17.6870 C.ar  147  TYR147      0.0417
     42  CE2       31.4010    7.3650   18.7480 C.ar  147  TYR147      0.0417
     43  CZ        30.2080    7.1070   18.0910 C.ar  147  TYR147      0.1957
     44  OH        29.8200    5.8160   17.8590 O.3   147  TYR147     -0.2866
     45  N         31.2830    9.3350   12.7230 N.3   149  ASN149     -0.1240
     46  CA        31.3610    8.2480   11.7510 C.3   149  ASN149      0.1653
     47  C         32.3430    8.5440   10.6240 C.2   149  ASN149      0.2266
     48  O         33.0850    7.6460   10.1940 O.2   149  ASN149     -0.2867
     49  CB        30.0000    7.9550   11.0900 C.3   149  ASN149      0.1155
     50  CG        28.9790    7.3570   12.0350 C.2   149  ASN149      0.2627
     51  OD1       29.2850    6.9150   13.1530 O.2   149  ASN149     -0.2716
     52  ND2       27.7480    7.3050   11.5680 N.am  149  ASN149     -0.0877
     53  N         19.0560   -1.2890    8.5990 N.3   208  VAL208     -0.1231
     54  CA        20.0090   -0.2220    8.2670 C.3   208  VAL208      0.1692
     55  C         20.1530   -0.1280    6.7480 C.2   208  VAL208      0.2592
     56  O         20.1240   -1.1420    6.0370 O.2   208  VAL208     -0.2718
     57  CB        21.3940   -0.4150    9.0130 C.3   208  VAL208      0.0266
     58  CG1       22.1540   -1.6450    8.5390 C.3   208  VAL208      0.0020
     59  CG2       22.2740    0.8330    8.9070 C.3   208  VAL208      0.0020
     60  N         20.1760    1.1090    6.2600 N.am  209  SER209     -0.1952
     61  CA        20.3490    1.4040    4.8340 C.3   209  SER209      0.1924
     62  C         21.8270    1.5350    4.4590 C.2   209  SER209      0.2314
     63  O         22.6470    1.9670    5.2850 O.2   209  SER209     -0.2863
     64  CB        19.6430    2.7180    4.4970 C.3   209  SER209      0.2116
     65  OG        18.2660    2.6580    4.8520 O.3   209  SER209     -0.2180
     66  N         29.4210    1.6050   11.2340 N.3   218  TYR218     -0.1241
     67  CA        28.1970    1.1040   11.8690 C.3   218  TYR218      0.1605
     68  C         27.5300   -0.1510   11.2750 C.2   218  TYR218      0.2264
     69  O         26.3870   -0.4300   11.5900 O.2   218  TYR218     -0.2867
     70  CB        27.1420    2.2340   11.9130 C.3   218  TYR218      0.0534
     71  CG        26.8000    2.8550   10.5610 C.ar  218  TYR218     -0.0201
     72  CD1       25.8030    2.3090    9.7570 C.ar  218  TYR218     -0.0009
     73  CD2       27.4470    4.0130   10.1170 C.ar  218  TYR218     -0.0009
     74  CE1       25.4580    2.8590    8.5400 C.ar  218  TYR218      0.0417
     75  CE2       27.1250    4.5790    8.8790 C.ar  218  TYR218      0.0417
     76  CZ        26.1190    3.9950    8.0940 C.ar  218  TYR218      0.1957
     77  OH        25.7760    4.5550    6.8940 O.3   218  TYR218     -0.2866
     78  N         23.8240   10.8710   24.8890 N.3   286  ASN286     -0.1240
     79  CA        24.2110   11.5890   23.6910 C.3   286  ASN286      0.1653
     80  C         24.2440   13.0740   24.0130 C.2   286  ASN286      0.2266
     81  O         23.4590   13.5690   24.8430 O.2   286  ASN286     -0.2867
     82  CB        23.2180   11.3270   22.5530 C.3   286  ASN286      0.1155
     83  CG        23.3560    9.9350   21.9580 C.2   286  ASN286      0.2627
     84  OD1       24.4530    9.3660   21.9300 O.2   286  ASN286     -0.2716
     85  ND2       22.2480    9.3870   21.4580 N.am  286  ASN286     -0.0877
     86  N         28.1880   12.9660   22.3180 N.3   290  LEU290     -0.1245
     87  CA        28.2520   13.5250   20.9510 C.3   290  LEU290      0.1561
     88  C         28.6910   14.9990   20.9010 C.2   290  LEU290      0.2260
     89  O         28.7630   15.5730   19.8100 O.2   290  LEU290     -0.2867
     90  CB        26.8950   13.3730   20.2210 C.3   290  LEU290      0.0270
     91  CG        26.1900   12.0090   20.1400 C.3   290  LEU290      0.0019
     92  CD1       24.8690   12.1680   19.3510 C.3   290  LEU290      0.0001
     93  CD2       27.0560   10.9070   19.5200 C.3   290  LEU290      0.0001
     94  N         31.4250    0.3330   24.8240 N.3   312  LYS312     -0.1231
     95  CA        30.9340    1.0810   23.6530 C.3   312  LYS312      0.1693
     96  C         29.4210    0.8890   23.5180 C.2   312  LYS312      0.2593
     97  O         28.9350   -0.2350   23.6150 O.2   312  LYS312     -0.2718
     98  CB        31.6310    0.6000   22.3840 C.3   312  LYS312      0.0285
     99  CG        31.2900    1.3780   21.1300 C.3   312  LYS312      0.0035
    100  CD        31.9610    2.7590   21.1280 C.3   312  LYS312      0.0206
    101  CE        31.5090    3.6130   19.9670 C.3   312  LYS312      0.1093
    102  NZ        30.1990    4.2630   20.1840 N.3   312  LYS312     -0.1314
    103  N         28.7050    1.9950   23.3560 N.am  313  THR313     -0.1939
    104  CA        27.2880    1.9820   22.9620 C.3   313  THR313      0.2028
    105  C         27.2100    2.0140   21.4430 C.2   313  THR313      0.2643
    106  O         28.1330    2.4780   20.7730 O.2   313  THR313     -0.2714
    107  CB        26.5520    3.2040   23.4840 C.3   313  THR313      0.1808
    108  OG1       27.2220    4.3970   23.0250 O.3   313  THR313     -0.2208
    109  CG2       26.5380    3.2210   25.0150 C.3   313  THR313      0.0379
    110  N         26.1090    1.5260   20.8880 N.am  314  GLY314     -0.1939
    111  CA        25.9040    1.6640   19.4570 C.3   314  GLY314      0.2014
    112  C         24.4460    1.5390   19.1290 C.2   314  GLY314      0.2639
    113  O         23.7270    0.7980   19.8090 O.2   314  GLY314     -0.2714
    114  N         24.0260    2.2540   18.0940 N.am  315  ALA315     -0.1963
    115  CA        22.6490    2.1990   17.6280 C.3   315  ALA315      0.1728
    116  C         22.5610    2.2420   16.1180 C.2   315  ALA315      0.2617
    117  O         23.4680    2.7090   15.4230 O.2   315  ALA315     -0.2715
    118  CB        21.8460    3.3590   18.2360 C.3   315  ALA315      0.0334
    119  N         21.4440    1.7450   15.6150 N.am  316  THR316     -0.1937
    120  CA        20.9780    2.0670   14.2790 C.3   316  THR316      0.2028
    121  C         19.5610    2.6140   14.4560 C.2   316  THR316      0.2642
    122  O         19.0490    2.6730   15.5800 O.2   316  THR316     -0.2714
    123  CB        21.0100    0.8460   13.3240 C.3   316  THR316      0.1808
    124  OG1       20.1450   -0.1850   13.8200 O.3   316  THR316     -0.2208
    125  CG2       22.4410    0.3200   13.1670 C.3   316  THR316      0.0379
    126  N         18.9120    3.0000   13.3710 N.am  317  GLY317     -0.1954
    127  CA        17.5550    3.5360   13.4660 C.3   317  GLY317      0.1869
    128  C         16.6190    2.6010   14.2350 C.2   317  GLY317      0.2309
    129  O         15.7360    3.0550   14.9590 O.2   317  GLY317     -0.2863
    130  N         16.0630    1.0960   19.2880 N.3   340  ASN340     -0.1240
    131  CA        17.0090    2.1120   19.7140 C.3   340  ASN340      0.1653
    132  C         16.4100    2.8620   20.9190 C.2   340  ASN340      0.2266
    133  O         15.5620    3.7230   20.7540 O.2   340  ASN340     -0.2867
    134  CB        17.2830    3.0800   18.5660 C.3   340  ASN340      0.1155
    135  CG        18.3340    4.1240   18.9110 C.2   340  ASN340      0.2627
    136  OD1       18.8710    4.1610   20.0290 O.2   340  ASN340     -0.2716
    137  ND2       18.6310    4.9790   17.9540 N.am  340  ASN340     -0.0877
@<TRIPOS>BOND
     1    62    61    1
     2    62    63    2
     3    64    61    1
     4    64    65    1
     5    61    60    1
     6    56    55    2
     7    60    55   am
     8    55    54    1
     9    77    76    1
    10    27    26    2
    11    76    74   ar
    12    76    75   ar
    13    54    53    1
    14    54    57    1
    15    26    25    1
    16    58    57    1
    17    74    72   ar
    18    75    73   ar
    19    59    57    1
    20    28    25    1
    21    28    29    1
    22    25    24    1
    23    72    71   ar
    24    73    71   ar
    25    48    47    2
    26    71    70    1
    27    47    46    1
    28    24    18   am
    29    29    30    1
    30    49    46    1
    31    49    50    1
    32    66    67    1
    33    30    31    2
    34    30    32   am
    35    68    69    2
    36    68    67    1
    37    52    50   am
    38    46    45    1
    39    18    19    2
    40    18    17    1
    41    67    70    1
    42    50    51    2
    43    16    17    1
    44    17    20    1
    45   125   123    1
    46   123   124    1
    47   123   120    1
    48   126   127    1
    49   126   121   am
    50   127   128    1
    51    20    21    1
    52   128   129    2
    53   120   121    1
    54   120   119    1
    55    21    22    1
    56    21    23    1
    57   121   122    2
    58    15    14    1
    59    14    13    1
    60    12    13    1
    61    12    11    1
    62   117   116    2
    63     7     8    1
    64   119   116   am
    65     8    11    1
    66     8     9    1
    67     6     5    1
    68     1     2    1
    69   116   115    1
    70    36    35    2
    71    10     9    2
    72     2     5    1
    73     2     3    1
    74    35    34    1
    75     3     4    2
    76   115   114    1
    77   115   118    1
    78    41    39   ar
    79    41    43   ar
    80    44    43    1
    81    34    33    1
    82    34    37    1
    83    39    38   ar
    84   137   135   am
    85    43    42   ar
    86   114   112   am
    87   134   135    1
    88   134   131    1
    89    38    37    1
    90    38    40   ar
    91    42    40   ar
    92   135   136    2
    93   112   111    1
    94   112   113    2
    95   130   131    1
    96    92    91    1
    97   111   110    1
    98    93    91    1
    99   131   132    1
   100    89    88    2
   101   101   102    1
   102   101   100    1
   103    91    90    1
   104    90    87    1
   105   133   132    2
   106   106   105    2
   107   110   105   am
   108    88    87    1
   109    87    86    1
   110   100    99    1
   111    99    98    1
   112   105   104    1
   113    85    83   am
   114    84    83    2
   115    83    82    1
   116    98    95    1
   117    82    79    1
   118   104   103    1
   119   104   107    1
   120   108   107    1
   121   103    96   am
   122   107   109    1
   123    96    97    2
   124    96    95    1
   125    95    94    1
   126    79    80    1
   127    79    78    1
   128    80    81    2
