@<TRIPOS>MOLECULE
tmp/2pu4A00.pdb
 134 124 0 0 0
SMALL
GASTEIGER

@<TRIPOS>ATOM
      1  N         27.4690   -1.3240   -9.7200 N.3    60  GLY60      -0.1210
      2  CA        27.5340   -1.4090   -8.2580 C.3    60  GLY60       0.1956
      3  C         28.9810   -1.1820   -7.8800 C.2    60  GLY60       0.2612
      4  O         29.6300   -0.3500   -8.5000 O.2    60  GLY60      -0.2717
      5  N         29.4840   -1.9480   -6.9050 N.am   61  SER61      -0.1952
      6  CA        30.8670   -1.8410   -6.3870 C.3    61  SER61       0.1924
      7  C         31.9960   -2.2160   -7.3500 C.2    61  SER61       0.2314
      8  O         33.1640   -1.9650   -7.0400 O.2    61  SER61      -0.2863
      9  CB        31.0440   -2.6830   -5.1330 C.3    61  SER61       0.2116
     10  OG        30.5630   -1.9730   -3.9980 O.3    61  SER61      -0.2180
     11  N         34.3400    0.4500   -7.9840 N.3    64  LYS64      -0.1245
     12  CA        35.5860    0.6610   -7.1760 C.3    64  LYS64       0.1561
     13  C         36.8940    0.3890   -7.9110 C.2    64  LYS64       0.2260
     14  O         37.9450    0.9910   -7.5910 O.2    64  LYS64      -0.2867
     15  CB        35.5410   -0.1590   -5.8660 C.3    64  LYS64       0.0271
     16  CG        34.4830    0.3040   -4.8710 C.3    64  LYS64       0.0035
     17  CD        34.6040   -0.4690   -3.5380 C.3    64  LYS64       0.0206
     18  CE        33.6100    0.0470   -2.5050 C.3    64  LYS64       0.1093
     19  NZ        32.1990   -0.3570   -2.8200 N.3    64  LYS64      -0.1314
     20  N         30.0030    1.0760    6.3090 N.3   116  LEU116     -0.1231
     21  CA        29.6920    0.5000    5.0130 C.3   116  LEU116      0.1693
     22  C         29.0220    1.5270    4.1110 C.2   116  LEU116      0.2591
     23  O         29.4110    1.6720    2.9730 O.2   116  LEU116     -0.2718
     24  CB        28.8010   -0.7320    5.1940 C.3   116  LEU116      0.0284
     25  CG        28.2780   -1.4270    3.9330 C.3   116  LEU116      0.0019
     26  CD1       29.4330   -1.9780    3.0800 C.3   116  LEU116      0.0001
     27  CD2       27.2860   -2.5450    4.3360 C.3   116  LEU116      0.0001
     28  N         28.0330    2.2540    4.6210 N.am  117  GLN117     -0.1979
     29  CA        27.4040    3.3270    3.8540 C.3   117  GLN117      0.1601
     30  C         27.7050    4.7080    4.4410 C.2   117  GLN117      0.2287
     31  O         27.7810    4.8830    5.6750 O.2   117  GLN117     -0.2864
     32  CB        25.8810    3.1380    3.8050 C.3   117  GLN117      0.0394
     33  CG        25.3880    1.7920    3.2320 C.3   117  GLN117      0.0908
     34  CD        25.7680    1.5860    1.7670 C.2   117  GLN117      0.2608
     35  OE1       26.1700    2.5260    1.0570 O.2   117  GLN117     -0.2717
     36  NE2       25.6540    0.3420    1.3080 N.am  117  GLN117     -0.0878
     37  N         35.0570   -3.4800    4.8370 N.3   147  TYR147     -0.1241
     38  CA        34.5810   -3.0120    3.5400 C.3   147  TYR147      0.1605
     39  C         33.5830   -1.8350    3.6770 C.2   147  TYR147      0.2264
     40  O         32.5820   -1.9110    4.4330 O.2   147  TYR147     -0.2867
     41  CB        33.9890   -4.1990    2.7640 C.3   147  TYR147      0.0534
     42  CG        33.5950   -3.8790    1.3550 C.ar  147  TYR147     -0.0201
     43  CD1       32.2890   -3.4610    1.0620 C.ar  147  TYR147     -0.0009
     44  CD2       34.5120   -3.9880    0.3070 C.ar  147  TYR147     -0.0009
     45  CE1       31.9090   -3.1490   -0.2370 C.ar  147  TYR147      0.0417
     46  CE2       34.1400   -3.6750   -1.0050 C.ar  147  TYR147      0.0417
     47  CZ        32.8250   -3.2610   -1.2540 C.ar  147  TYR147      0.1957
     48  OH        32.4290   -2.9540   -2.5250 O.3   147  TYR147     -0.2866
     49  N         31.8280    1.7700    1.6110 N.3   149  ASN149     -0.1240
     50  CA        31.6460    2.7790    0.5650 C.3   149  ASN149      0.1653
     51  C         32.1960    4.1390    1.0290 C.2   149  ASN149      0.2266
     52  O         32.7210    4.9100    0.2200 O.2   149  ASN149     -0.2867
     53  CB        30.1790    2.8560    0.1440 C.3   149  ASN149      0.1155
     54  CG        29.6950    1.5900   -0.5560 C.2   149  ASN149      0.2627
     55  OD1       30.4580    0.9040   -1.2200 O.2   149  ASN149     -0.2716
     56  ND2       28.4090    1.2840   -0.4100 N.am  149  ASN149     -0.0877
     57  N         19.3650    2.7350   -9.3300 N.3   208  VAL208     -0.1245
     58  CA        20.1350    3.2510   -8.1850 C.3   208  VAL208      0.1561
     59  C         19.7330    4.7090   -7.8630 C.2   208  VAL208      0.2260
     60  O         19.5030    5.5140   -8.7830 O.2   208  VAL208     -0.2867
     61  CB        21.6680    3.0990   -8.4180 C.3   208  VAL208      0.0252
     62  CG1       22.1740    4.1220   -9.4220 C.3   208  VAL208      0.0019
     63  CG2       22.4200    3.1890   -7.1100 C.3   208  VAL208      0.0019
     64  N         29.9810    3.2410   -6.0810 N.3   218  TYR218     -0.1241
     65  CA        29.0650    2.2710   -6.6980 C.3   218  TYR218      0.1605
     66  C         28.2920    2.7850   -7.9220 C.2   218  TYR218      0.2264
     67  O         27.2690    2.2010   -8.3100 O.2   218  TYR218     -0.2867
     68  CB        28.0780    1.7370   -5.6470 C.3   218  TYR218      0.0534
     69  CG        27.2910    2.8200   -4.9030 C.ar  218  TYR218     -0.0201
     70  CD1       26.1620    3.4140   -5.4800 C.ar  218  TYR218     -0.0009
     71  CD2       27.6750    3.2460   -3.6250 C.ar  218  TYR218     -0.0009
     72  CE1       25.4400    4.4030   -4.8150 C.ar  218  TYR218      0.0417
     73  CE2       26.9580    4.2450   -2.9510 C.ar  218  TYR218      0.0417
     74  CZ        25.8440    4.8180   -3.5580 C.ar  218  TYR218      0.1957
     75  OH        25.1050    5.7980   -2.9170 O.3   218  TYR218     -0.2866
     76  N         28.3870  -11.9090    1.7610 N.3   286  ASN286     -0.1240
     77  CA        28.4360  -10.6550    2.4960 C.3   286  ASN286      0.1653
     78  C         28.5920  -10.8410    4.0070 C.2   286  ASN286      0.2266
     79  O         29.1630   -9.9840    4.6780 O.2   286  ASN286     -0.2867
     80  CB        27.2080   -9.7980    2.1630 C.3   286  ASN286      0.1155
     81  CG        27.3410   -9.0750    0.8260 C.2   286  ASN286      0.2627
     82  OD1       28.4450   -8.9080    0.2860 O.2   286  ASN286     -0.2716
     83  ND2       26.2150   -8.6050    0.3020 N.am  286  ASN286     -0.0877
     84  N         31.7490   -8.5690    4.3110 N.3   290  LEU290     -0.1245
     85  CA        31.4420   -7.2760    4.9360 C.3   290  LEU290      0.1561
     86  C         31.8020   -7.2010    6.4330 C.2   290  LEU290      0.2260
     87  O         31.5550   -6.1830    7.0570 O.2   290  LEU290     -0.2867
     88  CB        29.9750   -6.8730    4.7090 C.3   290  LEU290      0.0270
     89  CG        29.3920   -6.7150    3.2990 C.3   290  LEU290      0.0019
     90  CD1       27.9850   -6.1110    3.4360 C.3   290  LEU290      0.0001
     91  CD2       30.2930   -5.8090    2.4360 C.3   290  LEU290      0.0001
     92  N         33.2020   -8.2430   -6.9080 N.3   313  THR313     -0.1203
     93  CA        31.7420   -8.3540   -6.9600 C.3   313  THR313      0.1994
     94  C         31.1210   -6.9600   -6.8690 C.2   313  THR313      0.2618
     95  O         31.7540   -6.0240   -6.3590 O.2   313  THR313     -0.2717
     96  CB        31.2350   -9.1970   -5.7820 C.3   313  THR313      0.1784
     97  OG1       31.6010   -8.5560   -4.5530 O.3   313  THR313     -0.2211
     98  CG2       31.8710  -10.5840   -5.7990 C.3   313  THR313      0.0376
     99  N         29.8820   -6.8030   -7.3350 N.am  314  GLY314     -0.1942
    100  CA        29.2040   -5.5140   -7.2140 C.3   314  GLY314      0.2014
    101  C         27.6960   -5.6390   -7.2030 C.2   314  GLY314      0.2639
    102  O         27.1400   -6.5310   -7.8270 O.2   314  GLY314     -0.2714
    103  N         27.0110   -4.7490   -6.4960 N.am  315  ALA315     -0.1963
    104  CA        25.5590   -4.8200   -6.4720 C.3   315  ALA315      0.1728
    105  C         24.9420   -3.4580   -6.3070 C.2   315  ALA315      0.2617
    106  O         25.5860   -2.5310   -5.8140 O.2   315  ALA315     -0.2715
    107  CB        25.0760   -5.7760   -5.3310 C.3   315  ALA315      0.0334
    108  N         23.6770   -3.3590   -6.7170 N.am  316  THR316     -0.1937
    109  CA        22.7960   -2.2790   -6.3260 C.3   316  THR316      0.2028
    110  C         21.4740   -2.9390   -5.9140 C.2   316  THR316      0.2642
    111  O         21.3830   -4.1660   -5.8540 O.2   316  THR316     -0.2714
    112  CB        22.5430   -1.2570   -7.4840 C.3   316  THR316      0.1808
    113  OG1       21.9240   -1.9240   -8.5850 O.3   316  THR316     -0.2208
    114  CG2       23.8350   -0.5710   -7.9510 C.3   316  THR316      0.0379
    115  N         20.4510   -2.1360   -5.6410 N.am  317  GLY317     -0.1954
    116  CA        19.1320   -2.6650   -5.3070 C.3   317  GLY317      0.1869
    117  C         18.6750   -3.6990   -6.3200 C.2   317  GLY317      0.2309
    118  O         18.1920   -4.7690   -5.9460 O.2   317  GLY317     -0.2863
    119  N         19.7940   -8.4390   -8.2730 N.3   340  ASN340     -0.1240
    120  CA        20.8240   -8.6330   -7.2790 C.3   340  ASN340      0.1653
    121  C         20.6490  -10.0220   -6.6820 C.2   340  ASN340      0.2266
    122  O         19.8240  -10.2260   -5.8060 O.2   340  ASN340     -0.2867
    123  CB        20.7460   -7.5490   -6.1820 C.3   340  ASN340      0.1155
    124  CG        21.7780   -7.7440   -5.0640 C.2   340  ASN340      0.2627
    125  OD1       22.7560   -8.4870   -5.2090 O.2   340  ASN340     -0.2716
    126  ND2       21.5530   -7.0720   -3.9340 N.am  340  ASN340     -0.0877
    127  N         26.0530  -13.3520   -4.1640 N.3   343  ASN343     -0.1240
    128  CA        27.4630  -13.3740   -4.6020 C.3   343  ASN343      0.1653
    129  C         28.0950  -14.7590   -4.8540 C.2   343  ASN343      0.2266
    130  O         28.7590  -14.9310   -5.8670 O.2   343  ASN343     -0.2867
    131  CB        28.3560  -12.5860   -3.6140 C.3   343  ASN343      0.1155
    132  CG        28.1290  -11.0850   -3.6740 C.2   343  ASN343      0.2627
    133  OD1       27.9630  -10.5040   -4.7490 O.2   343  ASN343     -0.2716
    134  ND2       28.1470  -10.4390   -2.5070 N.am  343  ASN343     -0.0877
@<TRIPOS>BOND
     1     1     2    1
     2    62    61    1
     3    57    58    1
     4    60    59    2
     5   113   112    1
     6     4     3    2
     7    61    58    1
     8    61    63    1
     9    67    66    2
    10   119   120    1
    11     2     3    1
    12    58    59    1
    13    11    12    1
    14   114   112    1
    15    66    65    1
    16    13    14    2
    17    13    12    1
    18     3     5   am
    19   102   101    2
    20   112   109    1
    21     7     8    2
    22     7     6    1
    23    99   100    1
    24    99    94   am
    25   120   121    1
    26   120   123    1
    27   100   101    1
    28   101   103   am
    29    12    15    1
    30    93    92    1
    31    93    94    1
    32    93    96    1
    33     5     6    1
    34    94    95    2
    35   108   109    1
    36   108   105   am
    37    65    64    1
    38    65    68    1
    39   121   122    2
    40   103   104    1
    41   104   105    1
    42   104   107    1
    43     6     9    1
    44   109   110    1
    45   117   118    2
    46   117   116    1
    47   105   106    2
    48   123   124    1
    49   110   111    2
    50   110   115   am
    51   130   129    2
    52    15    16    1
    53    98    96    1
    54    96    97    1
    55    68    69    1
    56   115   116    1
    57    70    69   ar
    58    70    72   ar
    59   125   124    2
    60     9    10    1
    61   124   126   am
    62    69    71   ar
    63    16    17    1
    64   129   128    1
    65    72    74   ar
    66   133   132    2
    67   128   127    1
    68   128   131    1
    69   132   131    1
    70   132   134   am
    71    71    73   ar
    72    74    73   ar
    73    74    75    1
    74    17    18    1
    75    19    18    1
    76    48    47    1
    77    47    46   ar
    78    47    45   ar
    79    55    54    2
    80    46    44   ar
    81    54    56   am
    82    54    53    1
    83    45    43   ar
    84    53    50    1
    85    52    51    2
    86    82    81    2
    87    83    81   am
    88    44    42   ar
    89    50    51    1
    90    50    49    1
    91    81    80    1
    92    35    34    2
    93    43    42   ar
    94    36    34   am
    95    42    41    1
    96    76    77    1
    97    34    33    1
    98    80    77    1
    99    91    89    1
   100    77    78    1
   101    41    38    1
   102    23    22    2
   103    26    25    1
   104    33    32    1
   105    89    90    1
   106    89    88    1
   107    38    39    1
   108    38    37    1
   109    39    40    2
   110    32    29    1
   111    29    30    1
   112    29    28    1
   113    25    27    1
   114    25    24    1
   115    78    79    2
   116    22    28   am
   117    22    21    1
   118    84    85    1
   119    30    31    2
   120    88    85    1
   121    85    86    1
   122    21    24    1
   123    21    20    1
   124    86    87    2
