@<TRIPOS>MOLECULE
tmp/2puaB00.pdb
 91 84 0 0 0
SMALL
GASTEIGER

@<TRIPOS>ATOM
      1  N         48.2450    0.8650  -10.0810 N.3    66  THR66      -0.1218
      2  CA        48.9730   -0.0560  -10.9380 C.3    66  THR66       0.1862
      3  C         49.4910   -1.2740  -10.1260 C.2    66  THR66       0.2287
      4  O         49.2960   -2.4140  -10.5000 O.2    66  THR66      -0.2866
      5  CB        50.1140    0.6450  -11.6500 C.3    66  THR66       0.1770
      6  OG1       49.5940    1.4610  -12.7270 O.3    66  THR66      -0.2211
      7  CG2       51.0260   -0.3930  -12.1930 C.3    66  THR66       0.0375
      8  N         55.4470   -1.2900   -4.7070 N.3    70  ALA70      -0.1245
      9  CA        56.4480   -0.3430   -5.1360 C.3    70  ALA70       0.1562
     10  C         56.5570    0.9690   -4.2670 C.2    70  ALA70       0.2260
     11  O         55.5780    1.6960   -3.9920 O.2    70  ALA70      -0.2867
     12  CB        56.2100   -0.0290   -6.5650 C.3    70  ALA70       0.0290
     13  N         57.5020    3.9900   -4.5810 N.3    72  TYR72      -0.1227
     14  CA        56.9210    5.1810   -5.1650 C.3    72  TYR72       0.1736
     15  C         55.4370    5.1540   -4.8120 C.2    72  TYR72       0.2595
     16  O         54.8910    5.8470   -3.9170 O.2    72  TYR72      -0.2718
     17  CB        57.1140    5.0230   -6.6730 C.3    72  TYR72       0.0548
     18  CG        56.6370    6.1730   -7.4290 C.ar   72  TYR72      -0.0200
     19  CD1       57.2680    7.3780   -7.3030 C.ar   72  TYR72      -0.0009
     20  CD2       55.5470    6.0860   -8.2720 C.ar   72  TYR72      -0.0009
     21  CE1       56.8480    8.5040   -7.9900 C.ar   72  TYR72       0.0417
     22  CE2       55.1140    7.2070   -8.9770 C.ar   72  TYR72       0.0417
     23  CZ        55.7810    8.4230   -8.8200 C.ar   72  TYR72       0.1957
     24  OH        55.4020    9.5590   -9.4440 O.3    72  TYR72      -0.2866
     25  N         54.8180    4.2480   -5.4960 N.am   73  PHE73      -0.1976
     26  CA        53.4320    4.0010   -5.3490 C.3    73  PHE73       0.1639
     27  C         52.8790    3.9480   -3.9450 C.2    73  PHE73       0.2290
     28  O         51.8860    4.5910   -3.5970 O.2    73  PHE73      -0.2864
     29  CB        53.2370    2.6710   -6.0020 C.3    73  PHE73       0.0560
     30  CG        53.1990    2.7810   -7.4800 C.ar   73  PHE73      -0.0200
     31  CD1       52.6650    3.9290   -8.0510 C.ar   73  PHE73      -0.0042
     32  CD2       53.6840    1.7470   -8.3220 C.ar   73  PHE73      -0.0042
     33  CE1       52.5770    4.0460   -9.4030 C.ar   73  PHE73      -0.0003
     34  CE2       53.6010    1.8700   -9.6930 C.ar   73  PHE73      -0.0003
     35  CZ        53.0520    3.0530  -10.2250 C.ar   73  PHE73      -0.0000
     36  N         49.7890    4.0400  -14.8930 N.3   123  SER123     -0.1217
     37  CA        51.0970    4.0220  -15.5130 C.3   123  SER123      0.1889
     38  C         51.0020    4.1420  -17.0220 C.2   123  SER123      0.2288
     39  O         51.1660    5.2220  -17.5450 O.2   123  SER123     -0.2866
     40  CB        51.8630    2.7760  -15.0920 C.3   123  SER123      0.2089
     41  OG        52.0610    2.7820  -13.6970 O.3   123  SER123     -0.2183
     42  N         55.2480    4.7940  -20.2270 N.3   189  ALA189     -0.1245
     43  CA        54.7110    5.5960  -19.1330 C.3   189  ALA189      0.1562
     44  C         55.3920    6.9610  -19.1100 C.2   189  ALA189      0.2260
     45  O         56.4800    7.1740  -19.6860 O.2   189  ALA189     -0.2867
     46  CB        54.8460    4.9000  -17.7990 C.3   189  ALA189      0.0290
     47  N         56.5000    8.8900  -16.4040 N.3   191  THR191     -0.1218
     48  CA        57.6470    8.8920  -15.5250 C.3   191  THR191      0.1862
     49  C         58.7820    8.1660  -16.1980 C.2   191  THR191      0.2287
     50  O         59.9180    8.2120  -15.7030 O.2   191  THR191     -0.2866
     51  CB        57.3430    8.1530  -14.2670 C.3   191  THR191      0.1770
     52  OG1       56.8230    6.8690  -14.6150 O.3   191  THR191     -0.2211
     53  CG2       56.3140    8.9090  -13.4410 C.3   191  THR191      0.0375
     54  N         60.7610   11.5620  -18.2960 N.3   195  ARG195     -0.1245
     55  CA        61.9630   11.9150  -17.5840 C.3   195  ARG195      0.1563
     56  C         63.1190   11.8140  -18.5700 C.2   195  ARG195      0.2260
     57  O         63.9870   12.6760  -18.5840 O.2   195  ARG195     -0.2867
     58  CB        62.1440   11.0100  -16.3470 C.3   195  ARG195      0.0307
     59  CG        61.0230   11.1080  -15.3100 C.3   195  ARG195      0.0489
     60  CD        61.1800   10.2050  -14.1020 C.3   195  ARG195      0.2205
     61  NE        60.1330   10.4140  -13.1020 N.pl3 195  ARG195     -0.0865
     62  CZ        60.0280    9.7350  -11.9500 C.cat 195  ARG195      0.5346
     63  NH1       60.9140    8.7930  -11.6380 N.pl3 195  ARG195      0.1354
     64  NH2       59.0240    9.9890  -11.1160 N.pl3 195  ARG195      0.1354
     65  N         61.5180   -0.1540  -13.5670 N.3   220  PHE220     -0.1241
     66  CA        61.3090    0.4660  -12.2500 C.3   220  PHE220      0.1605
     67  C         61.6430   -0.5330  -11.1610 C.2   220  PHE220      0.2264
     68  O         61.5830   -0.2390   -9.9900 O.2   220  PHE220     -0.2867
     69  CB        59.9130    1.0060  -12.0780 C.3   220  PHE220      0.0534
     70  CG        59.6600    2.2090  -12.8810 C.ar  220  PHE220     -0.0203
     71  CD1       60.4190    3.3450  -12.7000 C.ar  220  PHE220     -0.0042
     72  CD2       58.7010    2.1910  -13.8620 C.ar  220  PHE220     -0.0042
     73  CE1       60.2030    4.4630  -13.4720 C.ar  220  PHE220     -0.0003
     74  CE2       58.4720    3.2950  -14.6350 C.ar  220  PHE220     -0.0003
     75  CZ        59.2250    4.4370  -14.4370 C.ar  220  PHE220     -0.0000
     76  N         64.4220    3.0450   -6.9720 N.3   248  ILE248     -0.1245
     77  CA        64.4990    1.6150   -6.6890 C.3   248  ILE248      0.1561
     78  C         65.3670    0.8790   -7.7020 C.2   248  ILE248      0.2260
     79  O         66.0510   -0.0940   -7.4050 O.2   248  ILE248     -0.2867
     80  CB        63.1300    0.9550   -6.5400 C.3   248  ILE248      0.0252
     81  CG1       62.3030    1.6260   -5.4440 C.3   248  ILE248      0.0019
     82  CG2       63.3350   -0.5160   -6.2680 C.3   248  ILE248      0.0019
     83  CD1       62.8020    1.4010   -4.0710 C.3   248  ILE248      0.0001
     84  N         62.9550   10.3460   -7.9550 N.3   274  ASP274     -0.1239
     85  CA        61.7360   10.0660   -7.1400 C.3   274  ASP274      0.1674
     86  C         61.8830   10.5280   -5.7090 C.2   274  ASP274      0.2266
     87  O         60.9670   11.0710   -5.0420 O.2   274  ASP274     -0.2867
     88  CB        61.3940    8.5880   -7.0600 C.3   274  ASP274      0.1410
     89  CG        60.6540    8.0620   -8.3050 C.2   274  ASP274      0.3668
     90  OD1       60.1390    8.8640   -9.1450 O.co2 274  ASP274     -0.2456
     91  OD2       60.5810    6.8060   -8.4040 O.co2 274  ASP274     -0.2456
@<TRIPOS>BOND
     1    42    43    1
     2    45    44    2
     3    43    44    1
     4    43    46    1
     5    57    56    2
     6    56    55    1
     7    54    55    1
     8    55    58    1
     9    39    38    2
    10    38    37    1
    11    47    48    1
    12    58    59    1
    13    49    50    2
    14    49    48    1
    15    48    51    1
    16    37    40    1
    17    37    36    1
    18    59    60    1
    19    40    41    1
    20    74    75   ar
    21    74    72   ar
    22    52    51    1
    23    75    73   ar
    24    51    53    1
    25    60    61    1
    26    72    70   ar
    27    65    66    1
    28    73    71   ar
    29    61    62    2
    30    70    71   ar
    31    70    69    1
    32     6     5    1
    33    66    69    1
    34    66    67    1
    35     7     5    1
    36    62    63    1
    37    62    64    1
    38     5     2    1
    39    67    68    2
    40     2     3    1
    41     2     1    1
    42     4     3    2
    43    35    34   ar
    44    35    33   ar
    45    34    32   ar
    46    24    23    1
    47    33    31   ar
    48    90    89   ar
    49    22    23   ar
    50    22    20   ar
    51    23    21   ar
    52    91    89   ar
    53    32    30   ar
    54    89    88    1
    55    20    18   ar
    56    31    30   ar
    57    21    19   ar
    58    84    85    1
    59    78    79    2
    60    78    77    1
    61    30    29    1
    62    18    19   ar
    63    18    17    1
    64    85    88    1
    65    85    86    1
    66    76    77    1
    67    77    80    1
    68    17    14    1
    69    12     9    1
    70    80    82    1
    71    80    81    1
    72    29    26    1
    73    86    87    2
    74    25    26    1
    75    25    15   am
    76    81    83    1
    77    26    27    1
    78    14    15    1
    79    14    13    1
    80     9     8    1
    81     9    10    1
    82    15    16    2
    83    10    11    2
    84    27    28    2
