@<TRIPOS>MOLECULE
tmp/2pubB00.pdb
 86 80 0 0 0
SMALL
GASTEIGER

@<TRIPOS>ATOM
      1  N         48.3330    0.7370  -10.0690 N.3    65  THR65      -0.1218
      2  CA        49.0390   -0.2930  -10.8120 C.3    65  THR65       0.1862
      3  C         49.5230   -1.3680   -9.8750 C.2    65  THR65       0.2287
      4  O         49.3530   -2.5090  -10.0930 O.2    65  THR65      -0.2866
      5  CB        50.2670    0.2820  -11.4960 C.3    65  THR65       0.1770
      6  OG1       49.9010    0.9080  -12.7390 O.3    65  THR65      -0.2211
      7  CG2       51.2420   -0.8380  -11.7290 C.3    65  THR65       0.0375
      8  N         55.4460   -1.2560   -4.8690 N.3    69  ALA69      -0.1245
      9  CA        56.4300   -0.2300   -5.2790 C.3    69  ALA69       0.1562
     10  C         56.4780    0.9670   -4.3390 C.2    69  ALA69       0.2260
     11  O         55.4630    1.6340   -4.0640 O.2    69  ALA69      -0.2867
     12  CB        56.1290    0.2350   -6.7380 C.3    69  ALA69       0.0290
     13  N         57.4790    3.9270   -4.5320 N.3    71  TYR71      -0.1227
     14  CA        56.9240    5.1030   -5.1410 C.3    71  TYR71       0.1736
     15  C         55.4320    5.1300   -4.8190 C.2    71  TYR71       0.2595
     16  O         54.9680    5.8360   -3.9520 O.2    71  TYR71      -0.2718
     17  CB        57.1760    4.9780   -6.6310 C.3    71  TYR71       0.0548
     18  CG        56.6890    6.1480   -7.4160 C.ar   71  TYR71      -0.0200
     19  CD1       57.1300    7.4120   -7.1390 C.ar   71  TYR71      -0.0009
     20  CD2       55.7950    5.9940   -8.4540 C.ar   71  TYR71      -0.0009
     21  CE1       56.6910    8.5050   -7.8580 C.ar   71  TYR71       0.0417
     22  CE2       55.3620    7.0850   -9.1800 C.ar   71  TYR71       0.0417
     23  CZ        55.8160    8.3290   -8.8620 C.ar   71  TYR71       0.1957
     24  OH        55.4060    9.4350   -9.5210 O.3    71  TYR71      -0.2866
     25  N         54.7250    4.2580   -5.4760 N.am   72  PHE72      -0.1976
     26  CA        53.3090    4.0930   -5.3080 C.3    72  PHE72       0.1639
     27  C         52.8580    4.0710   -3.9190 C.2    72  PHE72       0.2290
     28  O         51.9490    4.7880   -3.4890 O.2    72  PHE72      -0.2864
     29  CB        52.9500    2.7690   -5.9210 C.3    72  PHE72       0.0560
     30  CG        53.0050    2.8400   -7.3750 C.ar   72  PHE72      -0.0200
     31  CD1       52.4200    3.9310   -7.9910 C.ar   72  PHE72      -0.0042
     32  CD2       53.7470    1.9390   -8.1080 C.ar   72  PHE72      -0.0042
     33  CE1       52.4910    4.0880   -9.3340 C.ar   72  PHE72      -0.0003
     34  CE2       53.8310    2.0950   -9.4770 C.ar   72  PHE72      -0.0003
     35  CZ        53.2140    3.1780  -10.0850 C.ar   72  PHE72      -0.0000
     36  N         49.9270    4.1480  -14.8720 N.3   122  SER122     -0.1217
     37  CA        51.2100    4.1140  -15.5190 C.3   122  SER122      0.1889
     38  C         51.1440    4.1590  -17.0330 C.2   122  SER122      0.2288
     39  O         51.5650    5.1200  -17.6090 O.2   122  SER122     -0.2866
     40  CB        52.0360    2.9450  -14.9850 C.3   122  SER122      0.2089
     41  OG        53.2660    3.4330  -14.4620 O.3   122  SER122     -0.2183
     42  N         56.5570    8.9200  -16.4730 N.3   190  THR190     -0.1218
     43  CA        57.7510    8.9430  -15.6110 C.3   190  THR190      0.1862
     44  C         58.8950    8.2320  -16.3080 C.2   190  THR190      0.2287
     45  O         60.0370    8.4050  -15.9220 O.2   190  THR190     -0.2866
     46  CB        57.4910    8.2560  -14.2810 C.3   190  THR190      0.1770
     47  OG1       56.8800    6.9990  -14.5250 O.3   190  THR190     -0.2211
     48  CG2       56.5150    9.0400  -13.4030 C.3   190  THR190      0.0375
     49  N         60.8460   11.5930  -18.3630 N.3   194  ARG194     -0.1245
     50  CA        62.0220   11.8960  -17.5980 C.3   194  ARG194      0.1563
     51  C         63.2180   11.8060  -18.5650 C.2   194  ARG194      0.2260
     52  O         64.0710   12.6670  -18.6140 O.2   194  ARG194     -0.2867
     53  CB        62.1070   10.9370  -16.3950 C.3   194  ARG194      0.0307
     54  CG        61.1270   11.2860  -15.2140 C.3   194  ARG194      0.0489
     55  CD        61.1840   10.1860  -14.1180 C.3   194  ARG194      0.2205
     56  NE        60.1810   10.3810  -13.0640 N.pl3 194  ARG194     -0.0865
     57  CZ        60.0600    9.5800  -12.0060 C.cat 194  ARG194      0.5346
     58  NH1       60.8840    8.5310  -11.9280 N.pl3 194  ARG194      0.1354
     59  NH2       59.0970    9.8130  -11.0810 N.pl3 194  ARG194      0.1354
     60  N         61.4840    0.0430  -13.6190 N.3   219  PHE219     -0.1241
     61  CA        61.3030    0.5090  -12.2430 C.3   219  PHE219      0.1605
     62  C         61.6010   -0.5250  -11.1680 C.2   219  PHE219      0.2264
     63  O         61.5420   -0.2010   -9.9760 O.2   219  PHE219     -0.2867
     64  CB        59.9330    1.1080  -12.0020 C.3   219  PHE219      0.0534
     65  CG        59.6870    2.3330  -12.7930 C.ar  219  PHE219     -0.0203
     66  CD1       60.4450    3.4550  -12.5690 C.ar  219  PHE219     -0.0042
     67  CD2       58.7150    2.3540  -13.7860 C.ar  219  PHE219     -0.0042
     68  CE1       60.2470    4.5880  -13.3060 C.ar  219  PHE219     -0.0003
     69  CE2       58.5090    3.4800  -14.5310 C.ar  219  PHE219     -0.0003
     70  CZ        59.2670    4.5980  -14.2810 C.ar  219  PHE219     -0.0000
     71  N         64.4440    3.0190   -6.8320 N.3   247  ILE247     -0.1245
     72  CA        64.5470    1.5920   -6.6810 C.3   247  ILE247      0.1561
     73  C         65.4530    0.9100   -7.7440 C.2   247  ILE247      0.2260
     74  O         66.2210    0.0150   -7.4150 O.2   247  ILE247     -0.2867
     75  CB        63.1960    0.9140   -6.5170 C.3   247  ILE247      0.0252
     76  CG1       62.3660    1.6630   -5.4970 C.3   247  ILE247      0.0019
     77  CG2       63.4310   -0.5340   -6.0990 C.3   247  ILE247      0.0019
     78  CD1       62.9310    1.4620   -4.0880 C.3   247  ILE247      0.0001
     79  N         63.0400   10.1920   -7.9040 N.3   273  ASP273     -0.1239
     80  CA        61.8440    9.9380   -7.0860 C.3   273  ASP273      0.1674
     81  C         61.9900   10.4230   -5.6780 C.2   273  ASP273      0.2266
     82  O         61.0660   10.9770   -5.0720 O.2   273  ASP273     -0.2867
     83  CB        61.4130    8.4630   -7.0420 C.3   273  ASP273      0.1410
     84  CG        60.7290    7.9880   -8.3520 C.2   273  ASP273      0.3668
     85  OD1       60.4200    8.8690   -9.1750 O.co2 273  ASP273     -0.2456
     86  OD2       60.3610    6.7820   -8.4180 O.co2 273  ASP273     -0.2456
@<TRIPOS>BOND
     1    52    51    2
     2    51    50    1
     3    49    50    1
     4    39    38    2
     5    50    53    1
     6    38    37    1
     7    42    43    1
     8    53    54    1
     9    44    45    2
    10    44    43    1
    11    43    46    1
    12    37    40    1
    13    37    36    1
    14    54    55    1
    15    40    41    1
    16    69    70   ar
    17    69    67   ar
    18    47    46    1
    19    70    68   ar
    20    46    48    1
    21    55    56    1
    22    67    65   ar
    23    60    61    1
    24    68    66   ar
    25    56    57    2
    26    65    66   ar
    27    65    64    1
    28     6     5    1
    29    61    64    1
    30    61    62    1
    31    57    58    1
    32    57    59    1
    33     7     5    1
    34     5     2    1
    35    62    63    2
    36     2     1    1
    37     2     3    1
    38     4     3    2
    39    35    34   ar
    40    35    33   ar
    41    24    23    1
    42    34    32   ar
    43    33    31   ar
    44    22    23   ar
    45    22    20   ar
    46    85    84   ar
    47    23    21   ar
    48    20    18   ar
    49    86    84   ar
    50    84    83    1
    51    32    30   ar
    52    31    30   ar
    53    79    80    1
    54    21    19   ar
    55    73    74    2
    56    73    72    1
    57    18    19   ar
    58    18    17    1
    59    30    29    1
    60    80    83    1
    61    80    81    1
    62    71    72    1
    63    12     9    1
    64    72    75    1
    65    17    14    1
    66    75    77    1
    67    75    76    1
    68    29    26    1
    69    81    82    2
    70    76    78    1
    71    25    26    1
    72    25    15   am
    73    26    27    1
    74     9     8    1
    75     9    10    1
    76    14    15    1
    77    14    13    1
    78    15    16    2
    79    10    11    2
    80    27    28    2
