@<TRIPOS>MOLECULE
tmp/2puhA01.pdb
 178 173 0 0 0
SMALL
GASTEIGER

@<TRIPOS>ATOM
      1  N         -2.8060   19.5160  -17.4480 N.3    38  GLY38      -0.1210
      2  CA        -1.8080   18.4280  -17.5660 C.3    38  GLY38       0.1956
      3  C         -0.8220   18.6420  -18.7110 C.2    38  GLY38       0.2612
      4  O         -0.9270   19.6220  -19.4840 O.2    38  GLY38      -0.2717
      5  N          0.1320   17.7240  -18.8270 N.am   39  GLY39      -0.1942
      6  CA         1.2100   17.8720  -19.8060 C.3    39  GLY39       0.2014
      7  C          1.1190   17.0060  -21.0530 C.2    39  GLY39       0.2639
      8  O          2.1100   16.8550  -21.7280 O.2    39  GLY39      -0.2714
      9  N         -0.0530   16.4300  -21.3640 N.am   40  GLY40      -0.1954
     10  CA        -0.1830   15.5370  -22.5230 C.3    40  GLY40       0.1869
     11  C         -0.2700   16.3730  -23.8030 C.2    40  GLY40       0.2309
     12  O         -0.5460   17.5630  -23.7380 O.2    40  GLY40      -0.2863
     13  N         -2.9090   19.4240  -24.6340 N.3    43  ALA43      -0.1245
     14  CA        -3.4900   19.9080  -23.3970 C.3    43  ALA43       0.1562
     15  C         -3.5710   21.4120  -23.4000 C.2    43  ALA43       0.2260
     16  O         -2.7310   22.0910  -23.9900 O.2    43  ALA43      -0.2867
     17  CB        -2.6820   19.4220  -22.1770 C.3    43  ALA43       0.0290
     18  N         -8.9970   20.9380  -20.6490 N.3    48  ASN48      -0.1240
     19  CA        -8.9540   20.2130  -19.3600 C.3    48  ASN48       0.1653
     20  C        -10.1270   20.6380  -18.4660 C.2    48  ASN48       0.2266
     21  O        -10.6230   19.8330  -17.6680 O.2    48  ASN48      -0.2867
     22  CB        -7.6330   20.4820  -18.5960 C.3    48  ASN48       0.1155
     23  CG        -6.5510   19.3960  -18.7860 C.2    48  ASN48       0.2627
     24  OD1       -5.6750   19.2710  -17.9400 O.2    48  ASN48      -0.2716
     25  ND2       -6.6040   18.6320  -19.8570 N.am   48  ASN48      -0.0877
     26  N         -3.8160   19.8680  -12.3480 N.3   108  ASN108     -0.1225
     27  CA        -3.9170   18.4920  -12.8150 C.3   108  ASN108      0.1785
     28  C         -2.5610   18.0140  -13.3110 C.2   108  ASN108      0.2597
     29  O         -2.0240   18.5870  -14.2580 O.2   108  ASN108     -0.2718
     30  CB        -4.9290   18.4530  -13.9920 C.3   108  ASN108      0.1169
     31  CG        -4.7820   17.2150  -14.8370 C.2   108  ASN108      0.2627
     32  OD1       -4.3170   16.2020  -14.3450 O.2   108  ASN108     -0.2716
     33  ND2       -5.1820   17.2820  -16.1140 N.am  108  ASN108     -0.0877
     34  N         -2.0090   16.9520  -12.7030 N.am  109  ALA109     -0.1966
     35  CA        -0.8300   16.2800  -13.2570 C.3   109  ALA109      0.1728
     36  C          0.3340   17.2770  -13.3680 C.2   109  ALA109      0.2616
     37  O          0.7870   17.7940  -12.3480 O.2   109  ALA109     -0.2715
     38  CB        -1.1790   15.6030  -14.6000 C.3   109  ALA109      0.0334
     39  N          0.8160   17.5820  -14.5800 N.am  110  MET110     -0.1977
     40  CA         1.8480   18.6140  -14.7130 C.3   110  MET110      0.1605
     41  C          1.4150   19.8850  -14.0050 C.2   110  MET110      0.2287
     42  O          2.2020   20.5080  -13.3070 O.2   110  MET110     -0.2864
     43  CB         2.1990   18.9030  -16.2010 C.3   110  MET110      0.0413
     44  CG         3.2050   20.0400  -16.3390 C.3   110  MET110      0.0598
     45  SD         3.4770   20.4800  -18.0570 S.3   110  MET110     -0.1393
     46  CE         2.0330   21.5350  -18.3780 C.3   110  MET110      0.0692
     47  N          1.7540   15.2760  -10.8860 N.3   135  GLY135     -0.1210
     48  CA         2.8340   14.4190  -11.4170 C.3   135  GLY135      0.1956
     49  C          4.2100   14.7760  -10.8610 C.2   135  GLY135      0.2612
     50  O          4.3780   15.8200  -10.2210 O.2   135  GLY135     -0.2717
     51  N          5.1760   13.8710  -11.0620 N.am  136  GLY136     -0.1956
     52  CA         6.5810   14.1710  -10.7920 C.3   136  GLY136      0.1869
     53  C          7.0880   13.9570   -9.3780 C.2   136  GLY136      0.2309
     54  O          8.2440   14.2790   -9.0860 O.2   136  GLY136     -0.2863
     55  N          1.8180    7.3590  -19.1680 N.3   150  ILE150     -0.1245
     56  CA         2.9670    8.1980  -19.4550 C.3   150  ILE150      0.1561
     57  C          3.6880    7.6780  -20.6950 C.2   150  ILE150      0.2260
     58  O          4.1240    8.4510  -21.5400 O.2   150  ILE150     -0.2867
     59  CB         3.9360    8.2740  -18.2230 C.3   150  ILE150      0.0252
     60  CG1        3.2430    8.8560  -16.9740 C.3   150  ILE150      0.0019
     61  CG2        5.2480    9.0300  -18.5620 C.3   150  ILE150      0.0019
     62  CD1        2.4600   10.1070  -17.2210 C.3   150  ILE150      0.0001
     63  N          1.6060    8.8060  -23.5580 N.3   153  LEU153     -0.1231
     64  CA         1.7480   10.2400  -23.7650 C.3   153  LEU153      0.1693
     65  C          3.0730   10.5280  -24.5190 C.2   153  LEU153      0.2592
     66  O          3.1170   11.3490  -25.4450 O.2   153  LEU153     -0.2718
     67  CB         1.6740   10.9240  -22.3970 C.3   153  LEU153      0.0284
     68  CG         2.0190   12.3570  -22.0420 C.3   153  LEU153      0.0019
     69  CD1        1.4040   12.5930  -20.6860 C.3   153  LEU153      0.0001
     70  CD2        3.5160   12.5750  -21.9830 C.3   153  LEU153      0.0001
     71  N          4.1660    9.8560  -24.1390 N.am  154  PHE154     -0.1976
     72  CA         5.4160   10.0570  -24.9060 C.3   154  PHE154      0.1639
     73  C          5.3650    9.5440  -26.3360 C.2   154  PHE154      0.2290
     74  O          5.9540   10.1400  -27.2560 O.2   154  PHE154     -0.2864
     75  CB         6.6330    9.5290  -24.1400 C.3   154  PHE154      0.0560
     76  CG         7.1560   10.5330  -23.1410 C.ar  154  PHE154     -0.0200
     77  CD1        8.1320   11.4610  -23.5120 C.ar  154  PHE154     -0.0042
     78  CD2        6.6190   10.6020  -21.8510 C.ar  154  PHE154     -0.0042
     79  CE1        8.5990   12.4190  -22.5980 C.ar  154  PHE154     -0.0003
     80  CE2        7.0810   11.5430  -20.9290 C.ar  154  PHE154     -0.0003
     81  CZ         8.0810   12.4550  -21.3080 C.ar  154  PHE154     -0.0000
     82  N         -6.8920    7.4220  -20.5110 N.3   172  PHE172     -0.1241
     83  CA        -7.2420    8.5090  -19.5630 C.3   172  PHE172      0.1605
     84  C         -8.5560    8.2900  -18.8340 C.2   172  PHE172      0.2264
     85  O         -8.7480    8.7590  -17.7150 O.2   172  PHE172     -0.2867
     86  CB        -7.4200    9.8420  -20.2910 C.3   172  PHE172      0.0534
     87  CG        -6.1850   10.7000  -20.3390 C.ar  172  PHE172     -0.0203
     88  CD1       -5.4730   11.0280  -19.1890 C.ar  172  PHE172     -0.0042
     89  CD2       -5.7560   11.2190  -21.5480 C.ar  172  PHE172     -0.0042
     90  CE1       -4.3330   11.8180  -19.2480 C.ar  172  PHE172     -0.0003
     91  CE2       -4.6290   12.0220  -21.6120 C.ar  172  PHE172     -0.0003
     92  CZ        -3.9200   12.3300  -20.4630 C.ar  172  PHE172     -0.0000
     93  N         -8.8640   17.8660  -29.0340 N.3   187  ARG187     -0.1245
     94  CA        -7.5100   17.5930  -28.6100 C.3   187  ARG187      0.1563
     95  C         -6.6000   17.4760  -29.8540 C.2   187  ARG187      0.2260
     96  O         -5.4550   17.9130  -29.8420 O.2   187  ARG187     -0.2867
     97  CB        -7.4780   16.3400  -27.7440 C.3   187  ARG187      0.0307
     98  CG        -6.2290   16.2360  -26.9340 C.3   187  ARG187      0.0489
     99  CD        -6.3230   16.7460  -25.4990 C.3   187  ARG187      0.2205
    100  NE        -5.0700   16.3370  -24.8580 N.pl3 187  ARG187     -0.0865
    101  CZ        -4.8030   16.3330  -23.5580 C.cat 187  ARG187      0.5346
    102  NH1       -5.6940   16.7350  -22.6390 N.pl3 187  ARG187      0.1354
    103  NH2       -3.6010   15.9370  -23.1880 N.pl3 187  ARG187      0.1354
    104  N          8.5900   19.7990  -26.2440 N.3   201  PHE201     -0.1241
    105  CA         8.3490   19.0530  -25.0310 C.3   201  PHE201      0.1605
    106  C          9.3390   17.8940  -24.9340 C.2   201  PHE201      0.2264
    107  O          9.8930   17.6450  -23.8640 O.2   201  PHE201     -0.2867
    108  CB         6.8930   18.5340  -24.9650 C.3   201  PHE201      0.0534
    109  CG         6.5230   17.9310  -23.6200 C.ar  201  PHE201     -0.0203
    110  CD1        5.9480   18.7240  -22.6070 C.ar  201  PHE201     -0.0042
    111  CD2        6.7720   16.5790  -23.3540 C.ar  201  PHE201     -0.0042
    112  CE1        5.6150   18.1670  -21.3720 C.ar  201  PHE201     -0.0003
    113  CE2        6.4360   16.0100  -22.1170 C.ar  201  PHE201     -0.0003
    114  CZ         5.8640   16.7940  -21.1270 C.ar  201  PHE201     -0.0000
    115  N         11.9310   13.4060  -15.5300 N.3   210  LEU210     -0.1245
    116  CA        10.8870   13.4520  -14.5060 C.3   210  LEU210      0.1561
    117  C         11.4160   13.4800  -13.0670 C.2   210  LEU210      0.2260
    118  O         10.7840   14.0530  -12.1980 O.2   210  LEU210     -0.2867
    119  CB         9.8760   12.3170  -14.7110 C.3   210  LEU210      0.0270
    120  CG         8.5850   12.3720  -13.8880 C.3   210  LEU210      0.0019
    121  CD1        7.8420   13.7090  -14.1030 C.3   210  LEU210      0.0001
    122  CD2        7.6860   11.1800  -14.1890 C.3   210  LEU210      0.0001
    123  N         11.6450   16.7540  -11.3130 N.3   213  TRP213     -0.1241
    124  CA        10.3790   17.3730  -10.9100 C.3   213  TRP213      0.1605
    125  C          9.9820   17.0200   -9.4730 C.2   213  TRP213      0.2264
    126  O          9.0220   17.5880   -8.9310 O.2   213  TRP213     -0.2867
    127  CB         9.2340   16.8490  -11.7770 C.3   213  TRP213      0.0550
    128  CG         9.2050   17.1870  -13.2420 C.ar  213  TRP213      0.0003
    129  CD1       10.2610   17.2970  -14.1100 C.ar  213  TRP213      0.0946
    130  CD2        8.0230   17.3480  -14.0260 C.ar  213  TRP213      0.0152
    131  NE1        9.7990   17.5470  -15.3820 N.ar  213  TRP213     -0.2442
    132  CE2        8.4300   17.5860  -15.3580 C.ar  213  TRP213      0.0810
    133  CE3        6.6530   17.3100  -13.7310 C.ar  213  TRP213      0.0012
    134  CZ2        7.5130   17.7680  -16.3980 C.ar  213  TRP213      0.0191
    135  CZ3        5.7450   17.5140  -14.7550 C.ar  213  TRP213      0.0001
    136  CH2        6.1800   17.7440  -16.0780 C.ar  213  TRP213      0.0015
    137  N         -2.0630    7.0360  -15.1810 N.3   236  PHE236     -0.1227
    138  CA        -1.0270    8.0360  -15.5110 C.3   236  PHE236      0.1736
    139  C         -0.1460    8.4470  -14.3430 C.2   236  PHE236      0.2595
    140  O          1.0550    8.6670  -14.5160 O.2   236  PHE236     -0.2718
    141  CB        -1.6810    9.3060  -16.1290 C.3   236  PHE236      0.0547
    142  CG        -2.1720    9.0950  -17.5300 C.ar  236  PHE236     -0.0202
    143  CD1       -1.4920    9.6600  -18.6090 C.ar  236  PHE236     -0.0042
    144  CD2       -3.3280    8.3390  -17.7720 C.ar  236  PHE236     -0.0042
    145  CE1       -1.9590    9.4570  -19.9220 C.ar  236  PHE236     -0.0003
    146  CE2       -3.7670    8.1040  -19.0900 C.ar  236  PHE236     -0.0003
    147  CZ        -3.0850    8.6770  -20.1530 C.ar  236  PHE236     -0.0000
    148  N         -0.7600    8.6240  -13.1820 N.am  237  VAL237     -0.1980
    149  CA        -0.0350    8.9680  -11.9610 C.3   237  VAL237      0.1595
    150  C         -0.5530    8.0900  -10.8330 C.2   237  VAL237      0.2287
    151  O         -1.7470    7.8440  -10.7130 O.2   237  VAL237     -0.2864
    152  CB        -0.1110   10.4630  -11.5690 C.3   237  VAL237      0.0276
    153  CG1        0.7010   11.3200  -12.5630 C.3   237  VAL237      0.0022
    154  CG2       -1.5370   10.9290  -11.5230 C.3   237  VAL237      0.0022
    155  N         -7.7160    9.1180  -14.7990 N.3   262  HIS262     -0.1226
    156  CA        -6.9190   10.2470  -14.3930 C.3   262  HIS262      0.1752
    157  C         -7.6970   11.5670  -14.2160 C.2   262  HIS262      0.2596
    158  O         -7.4640   12.3060  -13.2240 O.2   262  HIS262     -0.2718
    159  CB        -5.7260   10.4360  -15.3580 C.3   262  HIS262      0.0759
    160  CG        -4.8920   11.6060  -14.9960 C.ar  262  HIS262      0.0818
    161  ND1       -4.1360   11.6500  -13.8420 N.ar  262  HIS262     -0.2268
    162  CD2       -4.7480   12.8100  -15.5970 C.ar  262  HIS262      0.1154
    163  CE1       -3.5570   12.8350  -13.7560 C.ar  262  HIS262      0.1986
    164  NE2       -3.9230   13.5570  -14.7990 N.ar  262  HIS262     -0.2212
    165  N         -8.6040   11.8800  -15.1540 N.am  263  TRP263     -0.1976
    166  CA        -9.2800   13.1930  -15.1560 C.3   263  TRP263      0.1640
    167  C        -10.4940   13.1660  -14.2440 C.2   263  TRP263      0.2290
    168  O        -11.6310   12.9750  -14.7000 O.2   263  TRP263     -0.2864
    169  CB        -9.7520   13.5480  -16.5570 C.3   263  TRP263      0.0576
    170  CG        -8.6980   13.8850  -17.5570 C.ar  263  TRP263      0.0006
    171  CD1       -7.4640   14.4500  -17.3200 C.ar  263  TRP263      0.0946
    172  CD2       -8.8030   13.7360  -18.9670 C.ar  263  TRP263      0.0152
    173  NE1       -6.7820   14.6370  -18.5160 N.ar  263  TRP263     -0.2442
    174  CE2       -7.5820   14.2010  -19.5380 C.ar  263  TRP263      0.0810
    175  CE3       -9.7980   13.2340  -19.8140 C.ar  263  TRP263      0.0012
    176  CZ2       -7.3550   14.1990  -20.9080 C.ar  263  TRP263      0.0191
    177  CZ3       -9.5570   13.2180  -21.1850 C.ar  263  TRP263      0.0001
    178  CH2       -8.3460   13.6930  -21.7140 C.ar  263  TRP263      0.0015
@<TRIPOS>BOND
     1    95    96    2
     2    95    94    1
     3    93    94    1
     4    94    97    1
     5    97    98    1
     6    74    73    2
     7    98    99    1
     8    73    72    1
     9   104   105    1
    10    99   100    1
    11    66    65    2
    12   105   108    1
    13   105   106    1
    14   108   109    1
    15   106   107    2
    16    72    75    1
    17    72    71    1
    18   100   101    2
    19    13    14    1
    20    65    71   am
    21    65    64    1
    22    75    76    1
    23    16    15    2
    24    11    12    2
    25    11    10    1
    26    64    63    1
    27    64    67    1
    28   109   111   ar
    29   109   110   ar
    30   101   103    1
    31   101   102    1
    32    77    76   ar
    33    77    79   ar
    34    15    14    1
    35    14    17    1
    36   111   113   ar
    37    76    78   ar
    38   110   112   ar
    39    79    81   ar
    40    10     9    1
    41    67    68    1
    42   113   114   ar
    43    68    70    1
    44    68    69    1
    45    78    80   ar
    46     8     7    2
    47   178   177   ar
    48   178   176   ar
    49    91    89   ar
    50    91    92   ar
    51    89    87   ar
    52    58    57    2
    53   112   114   ar
    54     9     7   am
    55    81    80   ar
    56   177   175   ar
    57     7     6    1
    58   176   174   ar
    59    57    56    1
    60    18    19    1
    61    82    83    1
    62    92    90   ar
    63    87    86    1
    64    87    88   ar
    65    86    83    1
    66   147   145   ar
    67   147   146   ar
    68   145   143   ar
    69    25    23   am
    70   175   172   ar
    71     6     5    1
    72    83    84    1
    73   174   172   ar
    74   174   173   ar
    75     4     3    2
    76    56    55    1
    77    56    59    1
    78    19    22    1
    79    19    20    1
    80    90    88   ar
    81   146   144   ar
    82   172   170   ar
    83    84    85    2
    84     5     3   am
    85    23    22    1
    86    23    24    2
    87     3     2    1
    88   143   142   ar
    89    61    59    1
    90   173   171   ar
    91    20    21    2
    92    46    45    1
    93    59    60    1
    94    45    44    1
    95   144   142   ar
    96     2     1    1
    97   170   171   ar
    98   170   169    1
    99   142   141    1
   100    62    60    1
   101   169   166    1
   102   134   136   ar
   103   134   132   ar
   104    44    43    1
   105    43    40    1
   106   141   138    1
   107    33    31   am
   108   136   135   ar
   109   162   160   ar
   110   162   164   ar
   111   115   116    1
   112   138   137    1
   113   138   139    1
   114   131   132   ar
   115   131   129   ar
   116   132   130   ar
   117   159   160    1
   118   159   156    1
   119   166   165    1
   120   166   167    1
   121   165   157   am
   122   160   161   ar
   123    31    32    2
   124    31    30    1
   125   155   156    1
   126   164   163   ar
   127   135   133   ar
   128    40    39    1
   129    40    41    1
   130   119   116    1
   131   119   120    1
   132   168   167    2
   133    38    35    1
   134    39    36   am
   135   140   139    2
   136   116   117    1
   137   156   157    1
   138   139   148   am
   139    29    28    2
   140   157   158    2
   141   122   120    1
   142   129   128   ar
   143   121   120    1
   144   130   133   ar
   145   130   128   ar
   146    41    42    2
   147    30    27    1
   148   161   163   ar
   149    36    35    1
   150    36    37    2
   151    28    27    1
   152    28    34   am
   153    35    34    1
   154   128   127    1
   155   148   149    1
   156   117   118    2
   157    27    26    1
   158   153   152    1
   159   149   152    1
   160   149   150    1
   161   127   124    1
   162   152   154    1
   163    48    47    1
   164    48    49    1
   165   123   124    1
   166    51    49   am
   167    51    52    1
   168   124   125    1
   169    49    50    2
   170   150   151    2
   171    52    53    1
   172   125   126    2
   173    53    54    2
