@<TRIPOS>MOLECULE
tmp/2puiA01.pdb
 173 162 0 0 0
SMALL
GASTEIGER

@<TRIPOS>ATOM
      1  N         65.5190   37.7700   17.0270 N.3    23  ILE23      -0.1231
      2  CA        66.9280   38.1280   17.1710 C.3    23  ILE23       0.1692
      3  C         67.8650   37.1230   16.5050 C.2    23  ILE23       0.2593
      4  O         69.0740   37.1290   16.7620 O.2    23  ILE23      -0.2718
      5  CB        67.3360   38.3020   18.6660 C.3    23  ILE23       0.0266
      6  CG1       67.0860   37.0070   19.4610 C.3    23  ILE23       0.0019
      7  CG2       66.6350   39.5180   19.2820 C.3    23  ILE23       0.0020
      8  CD1       67.7870   36.9460   20.8070 C.3    23  ILE23       0.0001
      9  N         67.3140   36.2640   15.6530 N.am   24  GLY24      -0.1942
     10  CA        68.1120   35.2530   14.9560 C.3    24  GLY24       0.2014
     11  C         69.1600   35.8540   14.0320 C.2    24  GLY24       0.2639
     12  O         68.8610   36.7500   13.2330 O.2    24  GLY24      -0.2714
     13  N         70.3930   35.3660   14.1550 N.am   25  ASP25      -0.1957
     14  CA        71.4960   35.8020   13.2960 C.3    25  ASP25       0.1840
     15  C         71.3170   35.1900   11.9040 C.2    25  ASP25       0.2622
     16  O         71.2530   35.9170   10.8990 O.2    25  ASP25      -0.2715
     17  CB        72.8640   35.4160   13.9070 C.3    25  ASP25       0.1450
     18  CG        73.4080   36.3720   14.9100 C.2    25  ASP25       0.3671
     19  OD1       72.8480   37.4230   15.1360 O.co2  25  ASP25      -0.2456
     20  OD2       74.5300   36.0160   15.4550 O.co2  25  ASP25      -0.2456
     21  N         71.1960   33.8600   11.8580 N.am   26  GLY26      -0.1954
     22  CA        70.9610   33.1320   10.6110 C.3    26  GLY26       0.1869
     23  C         69.6520   33.4900    9.9220 C.2    26  GLY26       0.2309
     24  O         69.0380   34.5340   10.2040 O.2    26  GLY26      -0.2863
     25  N         67.8080   30.3820    8.4490 N.3    28  LEU28      -0.1231
     26  CA        67.1220   29.0880    8.5040 C.3    28  LEU28       0.1693
     27  C         66.3260   28.9080    9.8020 C.2    28  LEU28       0.2592
     28  O         65.2970   28.2320    9.8150 O.2    28  LEU28      -0.2718
     29  CB        68.1050   27.9270    8.2840 C.3    28  LEU28       0.0284
     30  CG        68.3120   27.4970    6.8230 C.3    28  LEU28       0.0019
     31  CD1       69.5800   26.6780    6.6550 C.3    28  LEU28       0.0001
     32  CD2       67.1030   26.7300    6.2700 C.3    28  LEU28       0.0001
     33  N         66.7960   29.5350   10.8760 N.am   29  ASN29      -0.1974
     34  CA        66.1110   29.4930   12.1660 C.3    29  ASN29       0.1688
     35  C         65.6880   30.8800   12.6560 C.2    29  ASN29       0.2292
     36  O         66.5010   31.8140   12.6520 O.2    29  ASN29      -0.2864
     37  CB        67.0090   28.8340   13.2160 C.3    29  ASN29       0.1181
     38  CG        67.0800   27.3360   13.0590 C.2    29  ASN29       0.2629
     39  OD1       66.0570   26.6850   12.8870 O.2    29  ASN29      -0.2716
     40  ND2       68.2860   26.7750   13.1160 N.am   29  ASN29      -0.0877
     41  N         64.6100   33.0460   15.9830 N.3    31  VAL31      -0.1245
     42  CA        64.7910   33.0430   17.4300 C.3    31  VAL31       0.1561
     43  C         64.0060   34.2290   17.9920 C.2    31  VAL31       0.2260
     44  O         64.3510   35.3760   17.7370 O.2    31  VAL31      -0.2867
     45  CB        66.3030   33.1220   17.8300 C.3    31  VAL31       0.0252
     46  CG1       66.4750   33.2080   19.3290 C.3    31  VAL31       0.0019
     47  CG2       67.0620   31.9310   17.3050 C.3    31  VAL31       0.0019
     48  N         62.9100   32.3820   25.3830 N.3    40  ILE40      -0.1245
     49  CA        63.2830   32.2420   23.9740 C.3    40  ILE40       0.1561
     50  C         62.4360   31.1670   23.2870 C.2    40  ILE40       0.2260
     51  O         62.2190   30.0900   23.8380 O.2    40  ILE40      -0.2867
     52  CB        64.8210   31.9620   23.7890 C.3    40  ILE40       0.0252
     53  CG1       65.6510   33.2210   24.0860 C.3    40  ILE40       0.0019
     54  CG2       65.1390   31.4040   22.4030 C.3    40  ILE40       0.0019
     55  CD1       65.6910   34.2680   22.9700 C.3    40  ILE40       0.0001
     56  N         62.6100   29.2680   19.6540 N.3    42  LYS42      -0.1245
     57  CA        63.3280   28.9950   18.4200 C.3    42  LYS42       0.1561
     58  C         62.4140   28.1760   17.5290 C.2    42  LYS42       0.2260
     59  O         61.7120   27.2960   18.0230 O.2    42  LYS42      -0.2867
     60  CB        64.6260   28.2270   18.7130 C.3    42  LYS42       0.0271
     61  CG        65.5550   28.0810   17.5080 C.3    42  LYS42       0.0035
     62  CD        66.8740   27.4300   17.8690 C.3    42  LYS42       0.0206
     63  CE        67.7580   27.2720   16.6430 C.3    42  LYS42       0.1093
     64  NZ        69.0870   26.7120   16.9630 N.3    42  LYS42      -0.1314
     65  N         67.1770   18.8730   17.7550 N.3    56  GLU56      -0.1245
     66  CA        67.7340   19.9130   18.6240 C.3    56  GLU56       0.1567
     67  C         67.1410   19.9180   20.0430 C.2    56  GLU56       0.2260
     68  O         67.8920   19.9180   21.0350 O.2    56  GLU56      -0.2867
     69  CB        67.6020   21.3120   17.9750 C.3    56  GLU56       0.0388
     70  CG        68.3800   22.3680   18.7270 C.3    56  GLU56       0.1160
     71  CD        68.2370   23.7700   18.1790 C.2    56  GLU56       0.3649
     72  OE1       67.4430   23.9830   17.2330 O.co2  56  GLU56      -0.2457
     73  OE2       68.9190   24.6710   18.7200 O.co2  56  GLU56      -0.2457
     74  N         70.9760   25.4630   28.0840 N.3    72  PRO72      -0.2116
     75  CA        69.7470   26.1350   28.5120 C.3    72  PRO72       0.1372
     76  C         68.6580   25.1150   28.8650 C.2    72  PRO72       0.2244
     77  O         68.6150   24.0350   28.2790 O.2    72  PRO72      -0.2868
     78  CB        69.3470   26.9440   27.2790 C.3    72  PRO72       0.0268
     79  CG        69.9430   26.1830   26.1400 C.3    72  PRO72       0.0207
     80  CD        71.2570   25.6960   26.6580 C.3    72  PRO72       0.0892
     81  N         62.8950   27.6870   25.2660 N.3    86  MET86      -0.1230
     82  CA        64.0370   27.5440   26.1600 C.3    86  MET86       0.1702
     83  C         64.4080   28.7950   26.9700 C.2    86  MET86       0.2592
     84  O         63.9200   29.9030   26.7210 O.2    86  MET86      -0.2718
     85  CB        65.2600   27.0590   25.3630 C.3    86  MET86       0.0401
     86  CG        65.7030   28.0140   24.2320 C.3    86  MET86       0.0596
     87  SD        67.3220   27.6100   23.5760 S.3    86  MET86      -0.1393
     88  CE        66.8680   26.6300   22.1490 C.3    86  MET86       0.0692
     89  N         65.2910   28.5790   27.9410 N.am   87  GLU87      -0.1966
     90  CA        65.8680   29.6210   28.7940 C.3    87  GLU87       0.1733
     91  C         66.5370   30.7780   28.0120 C.2    87  GLU87       0.2616
     92  O         67.2860   30.5580   27.0550 O.2    87  GLU87      -0.2715
     93  CB        66.8830   28.9460   29.7170 C.3    87  GLU87       0.0429
     94  CG        67.6730   29.8300   30.6510 C.3    87  GLU87       0.1163
     95  CD        68.5760   29.0080   31.5570 C.2    87  GLU87       0.3649
     96  OE1       68.9630   29.5120   32.6230 O.co2  87  GLU87      -0.2457
     97  OE2       68.9000   27.8460   31.2160 O.co2  87  GLU87      -0.2457
     98  N         66.2390   32.0110   28.4230 N.am   88  ASP88      -0.1957
     99  CA        66.8940   33.1900   27.8690 C.3    88  ASP88       0.1840
    100  C         68.3230   33.3140   28.3990 C.2    88  ASP88       0.2622
    101  O         68.5530   33.3200   29.6120 O.2    88  ASP88      -0.2715
    102  CB        66.0950   34.4700   28.1800 C.3    88  ASP88       0.1450
    103  CG        66.7880   35.7320   27.6770 C.2    88  ASP88       0.3671
    104  OD1       66.8590   36.7290   28.4370 O.co2  88  ASP88      -0.2456
    105  OD2       67.2650   35.7350   26.5180 O.co2  88  ASP88      -0.2456
    106  N         69.2790   33.4110   27.4830 N.am   89  LEU89      -0.1963
    107  CA        70.6710   33.5890   27.8650 C.3    89  LEU89       0.1728
    108  C         71.2880   34.8870   27.2860 C.2    89  LEU89       0.2616
    109  O         72.4970   34.9420   27.0210 O.2    89  LEU89      -0.2715
    110  CB        71.4910   32.3410   27.4810 C.3    89  LEU89       0.0311
    111  CG        71.0340   30.9680   28.0100 C.3    89  LEU89       0.0022
    112  CD1       71.7380   29.8470   27.2830 C.3    89  LEU89       0.0001
    113  CD2       71.2580   30.8320   29.5150 C.3    89  LEU89       0.0001
    114  N         70.4500   35.9170   27.1020 N.am   90  SER90      -0.1950
    115  CA        70.8720   37.2130   26.5420 C.3    90  SER90       0.1924
    116  C         71.7750   38.0370   27.4690 C.2    90  SER90       0.2314
    117  O         72.3160   39.0620   27.0560 O.2    90  SER90      -0.2863
    118  CB        69.6520   38.0810   26.1850 C.3    90  SER90       0.2116
    119  OG        68.8170   37.4700   25.2140 O.3    90  SER90      -0.2180
    120  N         77.9180   35.4680   23.0410 N.3    94  ILE94      -0.1245
    121  CA        78.4100   34.3870   22.2090 C.3    94  ILE94       0.1561
    122  C         79.9330   34.3650   22.3280 C.2    94  ILE94       0.2260
    123  O         80.5840   35.4060   22.2290 O.2    94  ILE94      -0.2867
    124  CB        77.9480   34.5470   20.7410 C.3    94  ILE94       0.0252
    125  CG1       76.4240   34.3100   20.6360 C.3    94  ILE94       0.0019
    126  CG2       78.7380   33.6230   19.8250 C.3    94  ILE94       0.0019
    127  CD1       75.9440   32.8620   20.9770 C.3    94  ILE94       0.0001
    128  N         80.8420   29.8630   18.2220 N.3   209  GLY209     -0.1210
    129  CA        79.5570   30.5210   17.9980 C.3   209  GLY209      0.1956
    130  C         78.3480   29.7440   18.5120 C.2   209  GLY209      0.2612
    131  O         77.2220   30.2720   18.5170 O.2   209  GLY209     -0.2717
    132  N         78.5750   28.5020   18.9430 N.am  210  SER210     -0.1952
    133  CA        77.5560   27.6700   19.5870 C.3   210  SER210      0.1924
    134  C         77.7150   27.6360   21.0940 C.2   210  SER210      0.2314
    135  O         77.2820   26.6930   21.7390 O.2   210  SER210     -0.2863
    136  CB        77.6210   26.2290   19.0650 C.3   210  SER210      0.2116
    137  OG        77.2350   26.1900   17.7080 O.3   210  SER210     -0.2180
    138  N         77.4660   30.2200   24.6800 N.3   212  PHE212     -0.1241
    139  CA        77.2400   31.4690   25.3900 C.3   212  PHE212      0.1605
    140  C         78.2200   31.4980   26.5470 C.2   212  PHE212      0.2264
    141  O         78.3970   30.4930   27.2290 O.2   212  PHE212     -0.2867
    142  CB        75.8070   31.5400   25.9350 C.3   212  PHE212      0.0534
    143  CG        74.8630   32.3330   25.0850 C.ar  212  PHE212     -0.0203
    144  CD1       74.9860   33.7180   24.9850 C.ar  212  PHE212     -0.0042
    145  CD2       73.8310   31.7060   24.4050 C.ar  212  PHE212     -0.0042
    146  CE1       74.0980   34.4580   24.2150 C.ar  212  PHE212     -0.0003
    147  CE2       72.9320   32.4440   23.6260 C.ar  212  PHE212     -0.0003
    148  CZ        73.0710   33.8200   23.5310 C.ar  212  PHE212     -0.0000
    149  N         74.8230   25.7090   23.0680 N.3   221  ILE221     -0.1231
    150  CA        73.5460   25.8640   22.3850 C.3   221  ILE221      0.1692
    151  C         73.6120   25.2600   20.9880 C.2   221  ILE221      0.2592
    152  O         74.6830   24.9080   20.4990 O.2   221  ILE221     -0.2718
    153  CB        73.1160   27.3860   22.2450 C.3   221  ILE221      0.0266
    154  CG1       74.1700   28.1910   21.4700 C.3   221  ILE221      0.0019
    155  CG2       72.7900   28.0050   23.5950 C.3   221  ILE221      0.0020
    156  CD1       73.6730   29.5340   20.9380 C.3   221  ILE221      0.0001
    157  N         72.4450   25.1350   20.3610 N.am  222  ASP222     -0.1974
    158  CA        72.3500   24.8020   18.9620 C.3   222  ASP222      0.1709
    159  C         72.8960   23.4020   18.5930 C.2   222  ASP222      0.2293
    160  O         73.7020   23.2760   17.6620 O.2   222  ASP222     -0.2864
    161  CB        73.0300   25.9060   18.1570 C.3   222  ASP222      0.1436
    162  CG        72.5940   25.9270   16.7330 C.2   222  ASP222      0.3671
    163  OD1       71.6330   25.2230   16.3840 O.co2 222  ASP222     -0.2456
    164  OD2       73.2210   26.6330   15.9390 O.co2 222  ASP222     -0.2456
    165  N         71.6360   21.2590   16.8120 N.3   224  GLU224     -0.1245
    166  CA        70.8870   20.9320   15.5880 C.3   224  GLU224      0.1567
    167  C         71.4250   19.7120   14.8580 C.2   224  GLU224      0.2260
    168  O         70.6600   18.9300   14.2620 O.2   224  GLU224     -0.2867
    169  CB        71.0510   22.1220   14.6410 C.3   224  GLU224      0.0388
    170  CG        69.9430   22.3300   13.6560 C.3   224  GLU224      0.1160
    171  CD        69.8250   23.7720   13.2370 C.2   224  GLU224      0.3649
    172  OE1       68.7040   24.1790   12.9170 O.co2 224  GLU224     -0.2457
    173  OE2       70.8400   24.5120   13.2420 O.co2 224  GLU224     -0.2457
@<TRIPOS>BOND
     1    32    30    1
     2    31    30    1
     3    30    29    1
     4    29    26    1
     5    25    26    1
     6    26    27    1
     7    27    28    2
     8    27    33   am
     9    23    24    2
    10    23    22    1
    11    22    21    1
    12    33    34    1
    13    16    15    2
    14    21    15   am
    15    15    14    1
    16    34    35    1
    17    34    37    1
    18    36    35    2
    19    39    38    2
    20   172   171   ar
    21    38    40   am
    22    38    37    1
    23    12    11    2
    24   171   173   ar
    25   171   170    1
    26    14    17    1
    27    14    13    1
    28   170   169    1
    29    17    18    1
    30    11    13   am
    31    11    10    1
    32   168   167    2
    33   169   166    1
    34   167   166    1
    35    18    19   ar
    36    18    20   ar
    37    10     9    1
    38   166   165    1
    39     9     3   am
    40   164   162   ar
    41    41    42    1
    42   163   162   ar
    43     3     4    2
    44     3     2    1
    45    63    64    1
    46    63    62    1
    47   162   161    1
    48     1     2    1
    49     2     5    1
    50    72    71   ar
    51    47    45    1
    52    42    45    1
    53    42    43    1
    54    61    62    1
    55    61    60    1
    56    58    59    2
    57    58    57    1
    58   160   159    2
    59   137   136    1
    60    44    43    2
    61    65    66    1
    62    45    46    1
    63    69    66    1
    64    69    70    1
    65   129   128    1
    66   129   130    1
    67   161   158    1
    68    71    73   ar
    69    71    70    1
    70    57    60    1
    71    57    56    1
    72   130   131    2
    73   130   132   am
    74   159   158    1
    75    66    67    1
    76     5     7    1
    77     5     6    1
    78   132   133    1
    79   158   157    1
    80   136   133    1
    81     6     8    1
    82   133   134    1
    83   126   124    1
    84    67    68    2
    85   157   151   am
    86   152   151    2
    87   125   124    1
    88   125   127    1
    89   124   121    1
    90   156   154    1
    91   151   150    1
    92   134   135    2
    93   154   153    1
    94    88    87    1
    95   121   122    1
    96   121   120    1
    97   123   122    2
    98   153   150    1
    99   153   155    1
   100   150   149    1
   101    54    52    1
   102    55    53    1
   103    50    51    2
   104    50    49    1
   105   148   147   ar
   106   148   146   ar
   107    87    86    1
   108   147   145   ar
   109    52    49    1
   110    52    53    1
   111    49    48    1
   112   146   144   ar
   113    86    85    1
   114   145   143   ar
   115   138   139    1
   116   144   143   ar
   117   143   142    1
   118   119   118    1
   119    81    82    1
   120    85    82    1
   121   139   142    1
   122   139   140    1
   123    79    80    1
   124    79    78    1
   125    82    83    1
   126   118   115    1
   127   105   103   ar
   128   115   114    1
   129   115   116    1
   130   140   141    2
   131    80    74    1
   132    84    83    2
   133    83    89   am
   134   109   108    2
   135    92    91    2
   136   117   116    2
   137   114   108   am
   138    78    75    1
   139   112   111    1
   140   108   107    1
   141   110   107    1
   142   110   111    1
   143   106   107    1
   144   106   100   am
   145   103   102    1
   146   103   104   ar
   147    99   102    1
   148    99   100    1
   149    99    98    1
   150    89    90    1
   151   111   113    1
   152    91    98   am
   153    91    90    1
   154    74    75    1
   155    77    76    2
   156   100   101    2
   157    75    76    1
   158    90    93    1
   159    93    94    1
   160    94    95    1
   161    97    95   ar
   162    95    96   ar
