@<TRIPOS>MOLECULE
tmp/2pulA01.pdb
 207 194 0 0 0
SMALL
GASTEIGER

@<TRIPOS>ATOM
      1  N        -65.3000  -38.0840   17.6120 N.3    29  ILE29      -0.1245
      2  CA       -66.7180  -38.4040   17.8100 C.3    29  ILE29       0.1561
      3  C        -67.6700  -37.4200   17.1080 C.2    29  ILE29       0.2260
      4  O        -68.8870  -37.4540   17.3240 O.2    29  ILE29      -0.2867
      5  CB       -67.0790  -38.5130   19.3250 C.3    29  ILE29       0.0252
      6  CG1      -66.8900  -37.1530   20.0300 C.3    29  ILE29       0.0019
      7  CG2      -66.2800  -39.6530   19.9970 C.3    29  ILE29       0.0019
      8  CD1      -67.5010  -37.0600   21.4170 C.3    29  ILE29       0.0001
      9  N        -70.1430  -35.3240   14.7280 N.3    31  ASP31      -0.1225
     10  CA       -71.4030  -35.7030   14.0870 C.3    31  ASP31       0.1805
     11  C        -71.4970  -35.2990   12.6020 C.2    31  ASP31       0.2598
     12  O        -72.2130  -35.9400   11.8160 O.2    31  ASP31      -0.2718
     13  CB       -72.5910  -35.1130   14.8780 C.3    31  ASP31       0.1424
     14  CG       -73.7940  -36.0420   14.9070 C.2    31  ASP31       0.3668
     15  OD1      -73.9640  -36.8100   13.9340 O.co2  31  ASP31      -0.2456
     16  OD2      -74.5760  -36.0090   15.8920 O.co2  31  ASP31      -0.2456
     17  N        -70.7800  -34.2420   12.2300 N.am   32  GLY32      -0.1957
     18  CA       -70.7840  -33.7160   10.8610 C.3    32  GLY32       0.1869
     19  C        -69.3850  -33.6390   10.2760 C.2    32  GLY32       0.2309
     20  O        -68.4270  -34.0490   10.9170 O.2    32  GLY32      -0.2863
     21  N        -67.7550  -30.7560    9.0750 N.3    34  LEU34      -0.1231
     22  CA       -67.1140  -29.4330    9.1440 C.3    34  LEU34       0.1693
     23  C        -66.2050  -29.2440   10.3610 C.2    34  LEU34       0.2592
     24  O        -65.3930  -28.3180   10.3960 O.2    34  LEU34      -0.2718
     25  CB       -68.1700  -28.3180    9.1010 C.3    34  LEU34       0.0284
     26  CG       -68.9670  -28.0610    7.8150 C.3    34  LEU34       0.0019
     27  CD1      -70.2090  -27.1950    8.1050 C.3    34  LEU34       0.0001
     28  CD2      -68.0980  -27.4060    6.7480 C.3    34  LEU34       0.0001
     29  N        -66.3540  -30.1010   11.3640 N.am   35  ASN35      -0.1974
     30  CA       -65.5470  -30.0170   12.5840 C.3    35  ASN35       0.1688
     31  C        -65.0850  -31.3960   13.0420 C.2    35  ASN35       0.2292
     32  O        -65.8190  -32.3740   12.8810 O.2    35  ASN35      -0.2864
     33  CB       -66.3560  -29.3740   13.7070 C.3    35  ASN35       0.1181
     34  CG       -66.7490  -27.9420   13.4010 C.2    35  ASN35       0.2629
     35  OD1      -65.9150  -27.0470   13.3890 O.2    35  ASN35      -0.2716
     36  ND2      -68.0200  -27.7260   13.1430 N.am   35  ASN35      -0.0877
     37  N        -64.3570  -33.3490   16.5460 N.3    37  VAL37      -0.1245
     38  CA       -64.6020  -33.2840   17.9820 C.3    37  VAL37       0.1561
     39  C        -63.8220  -34.4320   18.6070 C.2    37  VAL37       0.2260
     40  O        -64.1740  -35.5970   18.4110 O.2    37  VAL37      -0.2867
     41  CB       -66.1340  -33.3600   18.3330 C.3    37  VAL37       0.0252
     42  CG1      -66.3580  -33.3860   19.8460 C.3    37  VAL37       0.0019
     43  CG2      -66.8820  -32.2020   17.6970 C.3    37  VAL37       0.0019
     44  N        -62.8990  -32.2550   25.8210 N.3    46  ILE46      -0.1245
     45  CA       -63.2460  -32.1700   24.4070 C.3    46  ILE46       0.1561
     46  C        -62.3700  -31.1390   23.6980 C.2    46  ILE46       0.2260
     47  O        -62.2270  -30.0080   24.1600 O.2    46  ILE46      -0.2867
     48  CB       -64.7610  -31.8450   24.1870 C.3    46  ILE46       0.0252
     49  CG1      -65.6420  -33.0280   24.6310 C.3    46  ILE46       0.0019
     50  CG2      -65.0410  -31.4440   22.7350 C.3    46  ILE46       0.0019
     51  CD1      -65.7380  -34.2240   23.6520 C.3    46  ILE46       0.0001
     52  N        -62.4190  -29.4400   20.0670 N.3    48  LYS48      -0.1245
     53  CA       -63.1380  -29.2500   18.8130 C.3    48  LYS48       0.1561
     54  C        -62.2660  -28.4110   17.8950 C.2    48  LYS48       0.2260
     55  O        -61.6620  -27.4290   18.3310 O.2    48  LYS48      -0.2867
     56  CB       -64.5040  -28.5850   19.0420 C.3    48  LYS48       0.0271
     57  CG       -65.3490  -28.3940   17.7780 C.3    48  LYS48       0.0035
     58  CD       -66.7690  -27.8610   18.0890 C.3    48  LYS48       0.0206
     59  CE       -67.5030  -27.4780   16.8090 C.3    48  LYS48       0.1093
     60  NZ       -68.9040  -26.9880   17.0160 N.3    48  LYS48      -0.1314
     61  N        -73.3110  -31.3380    3.1000 N.3    57  GLU57      -0.1245
     62  CA       -72.1780  -30.4390    3.3590 C.3    57  GLU57       0.1567
     63  C        -70.9780  -30.7320    2.4360 C.2    57  GLU57       0.2260
     64  O        -70.9100  -31.8010    1.8350 O.2    57  GLU57      -0.2867
     65  CB       -71.7740  -30.4720    4.8710 C.3    57  GLU57       0.0388
     66  CG       -72.9510  -30.5170    5.8230 C.3    57  GLU57       0.1160
     67  CD       -73.4630  -29.1380    6.1540 C.2    57  GLU57       0.3649
     68  OE1      -72.6780  -28.1730    6.0380 O.co2  57  GLU57      -0.2457
     69  OE2      -74.6490  -29.0200    6.5260 O.co2  57  GLU57      -0.2457
     70  N        -67.3720  -19.0810   17.7790 N.3    69  GLU69      -0.1245
     71  CA       -67.9350  -20.1140   18.6630 C.3    69  GLU69       0.1567
     72  C        -67.2900  -20.0670   20.0420 C.2    69  GLU69       0.2260
     73  O        -68.0030  -20.0600   21.0520 O.2    69  GLU69      -0.2867
     74  CB       -67.8510  -21.5440   18.0450 C.3    69  GLU69       0.0388
     75  CG       -68.5830  -22.6260   18.8940 C.3    69  GLU69       0.1160
     76  CD       -68.3550  -24.0730   18.4400 C.2    69  GLU69       0.3649
     77  OE1      -67.7450  -24.2860   17.3650 O.co2  69  GLU69      -0.2457
     78  OE2      -68.8220  -25.0130   19.1520 O.co2  69  GLU69      -0.2457
     79  N        -71.0690  -25.4500   28.2460 N.3    85  PRO85      -0.2116
     80  CA       -69.8210  -26.0660   28.6900 C.3    85  PRO85       0.1372
     81  C        -68.7690  -25.0060   28.9880 C.2    85  PRO85       0.2244
     82  O        -68.7440  -23.9470   28.3440 O.2    85  PRO85      -0.2868
     83  CB       -69.3990  -26.9300   27.4970 C.3    85  PRO85       0.0268
     84  CG       -70.0650  -26.2980   26.3230 C.3    85  PRO85       0.0207
     85  CD       -71.3760  -25.8070   26.8450 C.3    85  PRO85       0.0892
     86  N        -62.9190  -27.6800   25.6010 N.3    99  MET99      -0.1230
     87  CA       -64.0740  -27.4830   26.4570 C.3    99  MET99       0.1702
     88  C        -64.4120  -28.6860   27.3270 C.2    99  MET99       0.2592
     89  O        -63.8880  -29.7850   27.1230 O.2    99  MET99      -0.2718
     90  CB       -65.2940  -27.0770   25.6180 C.3    99  MET99       0.0401
     91  CG       -65.8330  -28.1610   24.6750 C.3    99  MET99       0.0596
     92  SD       -67.3720  -27.7310   23.8120 S.3    99  MET99      -0.1393
     93  CE       -66.6950  -26.9330   22.3570 C.3    99  MET99       0.0692
     94  N        -65.2980  -28.4410   28.2900 N.am  100  GLU100     -0.1966
     95  CA       -65.9060  -29.4480   29.1560 C.3   100  GLU100      0.1733
     96  C        -66.5300  -30.6130   28.3710 C.2   100  GLU100      0.2616
     97  O        -67.2150  -30.4110   27.3580 O.2   100  GLU100     -0.2715
     98  CB       -66.9660  -28.7610   30.0220 C.3   100  GLU100      0.0429
     99  CG       -67.7710  -29.6430   30.9580 C.3   100  GLU100      0.1163
    100  CD       -68.6610  -28.8330   31.8890 C.2   100  GLU100      0.3649
    101  OE1      -69.0430  -29.3570   32.9530 O.co2 100  GLU100     -0.2457
    102  OE2      -68.9830  -27.6680   31.5630 O.co2 100  GLU100     -0.2457
    103  N        -66.2380  -31.8300   28.8230 N.am  101  ASP101     -0.1957
    104  CA       -66.8630  -33.0380   28.2860 C.3   101  ASP101      0.1840
    105  C        -68.2960  -33.1780   28.8180 C.2   101  ASP101      0.2622
    106  O        -68.5470  -33.1200   30.0260 O.2   101  ASP101     -0.2715
    107  CB       -66.0130  -34.2900   28.5990 C.3   101  ASP101      0.1450
    108  CG       -66.7260  -35.6040   28.2550 C.2   101  ASP101      0.3671
    109  OD1      -66.7390  -36.5020   29.1200 O.co2 101  ASP101     -0.2456
    110  OD2      -67.2580  -35.7610   27.1370 O.co2 101  ASP101     -0.2456
    111  N        -69.2330  -33.3390   27.8960 N.am  102  LEU102     -0.1963
    112  CA       -70.6270  -33.5040   28.2660 C.3   102  LEU102      0.1728
    113  C        -71.2140  -34.8320   27.7600 C.2   102  LEU102      0.2616
    114  O        -72.4220  -34.9430   27.5380 O.2   102  LEU102     -0.2715
    115  CB       -71.4690  -32.3040   27.7930 C.3   102  LEU102      0.0311
    116  CG       -71.0980  -30.9020   28.2900 C.3   102  LEU102      0.0022
    117  CD1      -71.9510  -29.8670   27.5950 C.3   102  LEU102      0.0001
    118  CD2      -71.2270  -30.7720   29.8150 C.3   102  LEU102      0.0001
    119  N        -70.3460  -35.8350   27.6110 N.am  103  SER103     -0.1950
    120  CA       -70.7110  -37.1710   27.1060 C.3   103  SER103      0.1924
    121  C        -71.7390  -37.9360   27.9540 C.2   103  SER103      0.2314
    122  O        -72.3480  -38.8840   27.4750 O.2   103  SER103     -0.2863
    123  CB       -69.4620  -38.0490   26.9680 C.3   103  SER103      0.2116
    124  OG       -68.6770  -37.6450   25.8600 O.3   103  SER103     -0.2180
    125  N        -78.0280  -35.4920   23.2520 N.3   107  ILE107     -0.1245
    126  CA       -78.5290  -34.3800   22.4460 C.3   107  ILE107      0.1561
    127  C        -80.0530  -34.3740   22.5740 C.2   107  ILE107      0.2260
    128  O        -80.6940  -35.4170   22.4220 O.2   107  ILE107     -0.2867
    129  CB       -78.0400  -34.4720   20.9860 C.3   107  ILE107      0.0252
    130  CG1      -76.5210  -34.1850   20.9180 C.3   107  ILE107      0.0019
    131  CG2      -78.9110  -33.5920   20.0380 C.3   107  ILE107      0.0019
    132  CD1      -76.0640  -32.7460   21.3580 C.3   107  ILE107      0.0001
    133  N        -78.4800  -20.3010   16.0890 N.3   218  ASP218     -0.1239
    134  CA       -78.8260  -21.6400   15.6050 C.3   218  ASP218      0.1674
    135  C        -79.2720  -22.5060   16.7890 C.2   218  ASP218      0.2266
    136  O        -78.8310  -23.6440   16.9520 O.2   218  ASP218     -0.2867
    137  CB       -77.6290  -22.2990   14.8900 C.3   218  ASP218      0.1410
    138  CG       -78.0350  -23.4920   14.0820 C.2   218  ASP218      0.3668
    139  OD1      -77.2120  -24.4300   13.9400 O.co2 218  ASP218     -0.2456
    140  OD2      -79.1860  -23.4890   13.5860 O.co2 218  ASP218     -0.2456
    141  N        -81.3890  -24.7690   18.0040 N.3   220  HIS220     -0.1241
    142  CA       -82.3650  -25.8300   17.8000 C.3   220  HIS220      0.1621
    143  C        -82.1030  -26.9390   18.8190 C.2   220  HIS220      0.2264
    144  O        -81.0880  -26.9150   19.5210 O.2   220  HIS220     -0.2867
    145  CB       -82.3260  -26.3230   16.3380 C.3   220  HIS220      0.0745
    146  CG       -80.9860  -26.8390   15.8910 C.ar  220  HIS220      0.0817
    147  ND1      -80.6060  -28.1530   16.0510 N.ar  220  HIS220     -0.2268
    148  CD2      -79.9400  -26.2180   15.2890 C.ar  220  HIS220      0.1154
    149  CE1      -79.3800  -28.3190   15.5780 C.ar  220  HIS220      0.1986
    150  NE2      -78.9540  -27.1600   15.1090 N.ar  220  HIS220     -0.2212
    151  N        -81.1200  -29.9240   18.4360 N.3   222  GLY222     -0.1210
    152  CA       -79.8990  -30.6690   18.1900 C.3   222  GLY222      0.1956
    153  C        -78.6650  -29.9120   18.6360 C.2   222  GLY222      0.2612
    154  O        -77.5440  -30.3960   18.4690 O.2   222  GLY222     -0.2717
    155  N        -78.8620  -28.7300   19.2220 N.am  223  SER223     -0.1952
    156  CA       -77.7400  -27.9060   19.6280 C.3   223  SER223      0.1924
    157  C        -77.7280  -27.7560   21.1370 C.2   223  SER223      0.2314
    158  O        -77.1540  -26.8070   21.6610 O.2   223  SER223     -0.2863
    159  CB       -77.8270  -26.5280   18.9700 C.3   223  SER223      0.2116
    160  OG       -76.5910  -25.8260   19.0880 O.3   223  SER223     -0.2180
    161  N        -77.4780  -30.2150   24.8660 N.3   225  PHE225     -0.1241
    162  CA       -77.3160  -31.4470   25.6350 C.3   225  PHE225      0.1605
    163  C        -78.2940  -31.4460   26.7890 C.2   225  PHE225      0.2264
    164  O        -78.4850  -30.4110   27.4360 O.2   225  PHE225     -0.2867
    165  CB       -75.9160  -31.5450   26.2280 C.3   225  PHE225      0.0534
    166  CG       -74.9040  -32.1950   25.3300 C.ar  225  PHE225     -0.0203
    167  CD1      -74.9350  -33.5720   25.0990 C.ar  225  PHE225     -0.0042
    168  CD2      -73.8870  -31.4460   24.7500 C.ar  225  PHE225     -0.0042
    169  CE1      -73.9800  -34.1790   24.2870 C.ar  225  PHE225     -0.0003
    170  CE2      -72.9280  -32.0590   23.9240 C.ar  225  PHE225     -0.0003
    171  CZ       -72.9870  -33.4170   23.7010 C.ar  225  PHE225     -0.0000
    172  N        -74.9060  -25.7570   23.2530 N.3   234  ILE234     -0.1231
    173  CA       -73.6240  -25.8560   22.5520 C.3   234  ILE234      0.1692
    174  C        -73.6250  -25.1430   21.1950 C.2   234  ILE234      0.2592
    175  O        -74.6790  -24.6910   20.7080 O.2   234  ILE234     -0.2718
    176  CB       -73.1520  -27.3490   22.3590 C.3   234  ILE234      0.0266
    177  CG1      -74.0930  -28.1010   21.3880 C.3   234  ILE234      0.0019
    178  CG2      -72.9590  -28.0500   23.7340 C.3   234  ILE234      0.0020
    179  CD1      -73.5270  -29.4110   20.7770 C.3   234  ILE234      0.0001
    180  N        -72.4220  -25.0120   20.6290 N.am  235  ASP235     -0.1974
    181  CA       -72.1920  -24.5580   19.2520 C.3   235  ASP235      0.1709
    182  C        -72.8400  -23.2120   18.8430 C.2   235  ASP235      0.2293
    183  O        -73.6070  -23.1600   17.8840 O.2   235  ASP235     -0.2864
    184  CB       -72.5560  -25.6510   18.2410 C.3   235  ASP235      0.1436
    185  CG       -72.0000  -25.3670   16.8690 C.2   235  ASP235      0.3671
    186  OD1      -71.1420  -24.4480   16.7380 O.co2 235  ASP235     -0.2456
    187  OD2      -72.3930  -26.0730   15.9170 O.co2 235  ASP235     -0.2456
    188  N        -71.7390  -21.0310   16.9560 N.3   237  GLU237     -0.1231
    189  CA       -70.9360  -20.5580   15.8310 C.3   237  GLU237      0.1699
    190  C        -71.6490  -19.5050   14.9770 C.2   237  GLU237      0.2592
    191  O        -70.9730  -18.7590   14.2410 O.2   237  GLU237     -0.2718
    192  CB       -70.5630  -21.7160   14.9030 C.3   237  GLU237      0.0402
    193  CG       -71.7720  -22.3130   14.2310 C.3   237  GLU237      0.1161
    194  CD       -71.4060  -23.3970   13.2230 C.2   237  GLU237      0.3649
    195  OE1      -72.1480  -24.4110   13.1770 O.co2 237  GLU237     -0.2457
    196  OE2      -70.3770  -23.2410   12.5060 O.co2 237  GLU237     -0.2457
    197  N        -72.9880  -19.4990   15.0020 N.am  238  PHE238     -0.1976
    198  CA       -73.7850  -18.5260   14.2220 C.3   238  PHE238      0.1639
    199  C        -73.9640  -17.2100   14.9760 C.2   238  PHE238      0.2290
    200  O        -74.6900  -16.3200   14.5140 O.2   238  PHE238     -0.2864
    201  CB       -75.1580  -19.0680   13.8420 C.3   238  PHE238      0.0560
    202  CG       -75.1310  -20.0850   12.7350 C.ar  238  PHE238     -0.0200
    203  CD1      -74.8810  -21.4210   13.0190 C.ar  238  PHE238     -0.0042
    204  CD2      -75.3710  -19.7060   11.4060 C.ar  238  PHE238     -0.0042
    205  CE1      -74.8280  -22.3640   12.0150 C.ar  238  PHE238     -0.0003
    206  CE2      -75.3330  -20.6590   10.3720 C.ar  238  PHE238     -0.0003
    207  CZ       -75.0650  -21.9850   10.6650 C.ar  238  PHE238     -0.0000
@<TRIPOS>BOND
     1    64    63    2
     2    63    62    1
     3    61    62    1
     4    62    65    1
     5    65    66    1
     6    66    67    1
     7    68    67   ar
     8    67    69   ar
     9    28    26    1
    10    26    27    1
    11    26    25    1
    12    21    22    1
    13    25    22    1
    14    22    23    1
    15    19    18    1
    16    19    20    2
    17    23    24    2
    18    23    29   am
    19   206   207   ar
    20   206   204   ar
    21   207   205   ar
    22    18    17    1
    23    29    30    1
    24   204   202   ar
    25    12    11    2
    26   205   203   ar
    27    17    11   am
    28   196   194   ar
    29    30    31    1
    30    30    33    1
    31    11    10    1
    32   202   203   ar
    33   202   201    1
    34    32    31    2
    35    36    34   am
    36   195   194   ar
    37   194   193    1
    38    35    34    2
    39    34    33    1
    40   140   138   ar
    41   201   198    1
    42    15    14   ar
    43   139   138   ar
    44   138   137    1
    45    10     9    1
    46    10    13    1
    47   198   199    1
    48   198   197    1
    49   193   192    1
    50   191   190    2
    51   200   199    2
    52    13    14    1
    53   137   134    1
    54   192   189    1
    55    14    16   ar
    56   190   197   am
    57   190   189    1
    58   150   148   ar
    59   150   149   ar
    60   148   146   ar
    61   149   147   ar
    62   134   133    1
    63   134   135    1
    64   189   188    1
    65   146   147   ar
    66   146   145    1
    67   187   185   ar
    68   145   142    1
    69    37    38    1
    70   186   185   ar
    71   135   136    2
    72    59    60    1
    73    59    58    1
    74   185   184    1
    75     3     4    2
    76     3     2    1
    77    77    76   ar
    78     1     2    1
    79    43    41    1
    80    57    58    1
    81    57    56    1
    82    70    71    1
    83   142   141    1
    84   142   143    1
    85     2     5    1
    86   183   182    2
    87    54    55    2
    88    54    53    1
    89    38    41    1
    90    38    39    1
    91    74    71    1
    92    74    75    1
    93   152   151    1
    94   152   153    1
    95   184   181    1
    96    41    42    1
    97    40    39    2
    98    76    75    1
    99    76    78   ar
   100   154   153    2
   101   153   155   am
   102    71    72    1
   103    53    56    1
   104    53    52    1
   105   143   144    2
   106   182   181    1
   107   159   160    1
   108   159   156    1
   109   155   156    1
   110   181   180    1
   111     5     7    1
   112     5     6    1
   113   156   157    1
   114     6     8    1
   115   131   129    1
   116    72    73    2
   117   180   174   am
   118   175   174    2
   119   179   177    1
   120   130   129    1
   121   130   132    1
   122   129   126    1
   123   157   158    2
   124   174   173    1
   125   177   176    1
   126    93    92    1
   127   176   173    1
   128   176   178    1
   129   128   127    2
   130   126   127    1
   131   126   125    1
   132   173   172    1
   133    50    48    1
   134    51    49    1
   135    46    47    2
   136    46    45    1
   137   171   170   ar
   138   171   169   ar
   139    92    91    1
   140   170   168   ar
   141    48    45    1
   142    48    49    1
   143   169   167   ar
   144    45    44    1
   145    91    90    1
   146   168   166   ar
   147   161   162    1
   148   167   166   ar
   149   166   165    1
   150    86    87    1
   151    90    87    1
   152   162   165    1
   153   162   163    1
   154   124   123    1
   155    84    85    1
   156    84    83    1
   157    87    88    1
   158   163   164    2
   159    85    79    1
   160   123   120    1
   161   120   119    1
   162   120   121    1
   163    89    88    2
   164   110   108   ar
   165    88    94   am
   166    97    96    2
   167   122   121    2
   168    83    80    1
   169   114   113    2
   170   117   116    1
   171   119   113   am
   172   113   112    1
   173   115   112    1
   174   115   116    1
   175   111   112    1
   176   111   105   am
   177    79    80    1
   178   108   107    1
   179   108   109   ar
   180   104   107    1
   181   104   105    1
   182   104   103    1
   183    94    95    1
   184   116   118    1
   185    82    81    2
   186    96   103   am
   187    96    95    1
   188    80    81    1
   189   105   106    2
   190    95    98    1
   191    98    99    1
   192    99   100    1
   193   102   100   ar
   194   100   101   ar
