@<TRIPOS>MOLECULE
tmp/2punB00.pdb
 133 127 0 0 0
SMALL
GASTEIGER

@<TRIPOS>ATOM
      1  N        -64.3600   23.2580   16.6350 N.3    35  LEU35      -0.1245
      2  CA       -63.9310   21.8580   16.5950 C.3    35  LEU35       0.1561
      3  C        -63.2400   21.4840   15.2730 C.2    35  LEU35       0.2260
      4  O        -62.6730   20.4010   15.1470 O.2    35  LEU35      -0.2867
      5  CB       -65.1200   20.9170   16.8970 C.3    35  LEU35       0.0270
      6  CG       -65.6350   20.9130   18.3360 C.3    35  LEU35       0.0019
      7  CD1      -66.8760   20.0540   18.4020 C.3    35  LEU35       0.0001
      8  CD2      -64.6100   20.3770   19.3020 C.3    35  LEU35       0.0001
      9  N        -67.4570   19.6990   24.6330 N.3    56  TRP56      -0.1241
     10  CA       -67.8600   18.2870   24.3300 C.3    56  TRP56       0.1605
     11  C        -66.6930   17.5350   23.7070 C.2    56  TRP56       0.2264
     12  O        -66.4160   17.7240   22.5280 O.2    56  TRP56      -0.2867
     13  CB       -69.0790   18.2540   23.3980 C.3    56  TRP56       0.0550
     14  CG       -70.0850   19.3300   23.7600 C.ar   56  TRP56       0.0003
     15  CD1      -70.5330   20.3420   22.9550 C.ar   56  TRP56       0.0946
     16  CD2      -70.6690   19.5670   25.0530 C.ar   56  TRP56       0.0152
     17  NE1      -71.3390   21.1990   23.6650 N.ar   56  TRP56      -0.2442
     18  CE2      -71.4400   20.7470   24.9560 C.ar   56  TRP56       0.0810
     19  CE3      -70.6030   18.9030   26.2880 C.ar   56  TRP56       0.0012
     20  CZ2      -72.1410   21.2810   26.0460 C.ar   56  TRP56       0.0191
     21  CZ3      -71.3010   19.4370   27.3760 C.ar   56  TRP56       0.0001
     22  CH2      -72.0580   20.6140   27.2440 C.ar   56  TRP56       0.0015
     23  N        -73.6200   11.4230   20.9380 N.3   158  ILE158     -0.1231
     24  CA       -74.1830   12.7460   21.0200 C.3   158  ILE158      0.1692
     25  C        -75.6510   12.7120   20.6020 C.2   158  ILE158      0.2592
     26  O        -76.4920   13.2590   21.3090 O.2   158  ILE158     -0.2718
     27  CB       -73.4030   13.7660   20.1640 C.3   158  ILE158      0.0266
     28  CG1      -71.9710   13.9760   20.7100 C.3   158  ILE158      0.0019
     29  CG2      -74.1790   15.0780   20.0780 C.3   158  ILE158      0.0020
     30  CD1      -71.0300   14.6870   19.7270 C.3   158  ILE158      0.0001
     31  N        -75.9620   12.0900   19.4540 N.am  159  THR159     -0.1953
     32  CA       -77.3440   11.9960   18.9900 C.3   159  THR159      0.1897
     33  C        -78.2420   11.2070   19.9590 C.2   159  THR159      0.2313
     34  O        -79.3360   11.6360   20.3110 O.2   159  THR159     -0.2863
     35  CB       -77.4160   11.3900   17.5950 C.3   159  THR159      0.1794
     36  OG1      -76.4190   12.0040   16.7680 O.3   159  THR159     -0.2208
     37  CG2      -78.7970   11.6250   16.9920 C.3   159  THR159      0.0378
     38  N        -78.8430   13.6220   22.8870 N.3   162  LEU162     -0.1231
     39  CA       -79.3670   14.9590   22.6740 C.3   162  LEU162      0.1693
     40  C        -80.6720   14.9790   21.9250 C.2   162  LEU162      0.2591
     41  O        -81.5680   15.7060   22.3240 O.2   162  LEU162     -0.2718
     42  CB       -78.3310   15.9170   22.0640 C.3   162  LEU162      0.0284
     43  CG       -77.1090   16.3070   22.9100 C.3   162  LEU162      0.0019
     44  CD1      -76.3410   17.4000   22.1980 C.3   162  LEU162      0.0001
     45  CD2      -77.4430   16.7640   24.3680 C.3   162  LEU162      0.0001
     46  N        -80.7940   14.1800   20.8640 N.am  163  VAL163     -0.1980
     47  CA       -82.0820   14.0810   20.1880 C.3   163  VAL163      0.1595
     48  C        -83.1320   13.1490   20.8250 C.2   163  VAL163      0.2287
     49  O        -84.3260   13.4440   20.7490 O.2   163  VAL163     -0.2864
     50  CB       -81.9890   14.0320   18.5800 C.3   163  VAL163      0.0276
     51  CG1      -80.5770   13.9640   18.0840 C.3   163  VAL163      0.0022
     52  CG2      -82.9160   13.0330   17.9840 C.3   163  VAL163      0.0022
     53  N        -76.8570   13.9440   10.4430 N.3   215  ASP215     -0.1239
     54  CA       -77.0420   15.3120   10.9670 C.3   215  ASP215      0.1674
     55  C        -77.5690   16.2530    9.8800 C.2   215  ASP215      0.2266
     56  O        -77.1230   17.3880    9.7740 O.2   215  ASP215     -0.2867
     57  CB       -75.7340   15.8680   11.5850 C.3   215  ASP215      0.1410
     58  CG       -75.9670   17.1150   12.4490 C.2   215  ASP215      0.3668
     59  OD1      -77.0340   17.2410   13.0890 O.co2 215  ASP215     -0.2456
     60  OD2      -75.0880   17.9820   12.4840 O.co2 215  ASP215     -0.2456
     61  N        -79.3780   18.7640    8.8230 N.3   217  HIS217     -0.1241
     62  CA       -80.1460   19.9770    9.0730 C.3   217  HIS217      0.1621
     63  C        -79.8750   21.0340    7.9840 C.2   217  HIS217      0.2264
     64  O        -79.0470   20.8260    7.0930 O.2   217  HIS217     -0.2867
     65  CB       -79.9070   20.5080   10.5010 C.3   217  HIS217      0.0745
     66  CG       -78.4660   20.7630   10.8360 C.ar  217  HIS217      0.0817
     67  ND1      -77.9150   22.0280   10.8260 N.ar  217  HIS217     -0.2268
     68  CD2      -77.4750   19.9240   11.2280 C.ar  217  HIS217      0.1154
     69  CE1      -76.6400   21.9520   11.1540 C.ar  217  HIS217      0.1986
     70  NE2      -76.3500   20.6890   11.4140 N.ar  217  HIS217     -0.2212
     71  N        -70.7390   18.0600    5.4780 N.3   232  ASP232     -0.1239
     72  CA       -70.5050   17.6220    6.8710 C.3   232  ASP232      0.1674
     73  C        -71.1840   16.3060    7.3480 C.2   232  ASP232      0.2266
     74  O        -71.8980   16.3140    8.3560 O.2   232  ASP232     -0.2867
     75  CB       -70.7470   18.7970    7.8450 C.3   232  ASP232      0.1410
     76  CG       -70.2000   18.5350    9.2350 C.2   232  ASP232      0.3668
     77  OD1      -69.1900   17.8120    9.3590 O.co2 232  ASP232     -0.2456
     78  OD2      -70.7850   19.0520   10.2270 O.co2 232  ASP232     -0.2456
     79  N        -70.2610   13.9730    9.2060 N.3   234  GLU234     -0.1231
     80  CA       -69.3960   13.4290   10.2390 C.3   234  GLU234      0.1699
     81  C        -70.1270   12.4840   11.1870 C.2   234  GLU234      0.2592
     82  O        -69.4830   11.6770   11.8580 O.2   234  GLU234     -0.2718
     83  CB       -68.6700   14.5470   11.0120 C.3   234  GLU234      0.0402
     84  CG       -69.5520   15.3770   11.9010 C.3   234  GLU234      0.1161
     85  CD       -68.7770   16.4270   12.6970 C.2   234  GLU234      0.3649
     86  OE1      -69.3930   17.4730   13.0540 O.co2 234  GLU234     -0.2457
     87  OE2      -67.5620   16.2170   12.9580 O.co2 234  GLU234     -0.2457
     88  N        -71.4580   12.6060   11.2450 N.am  235  PHE235     -0.1976
     89  CA       -72.3210   11.7540   12.0750 C.3   235  PHE235      0.1639
     90  C        -72.7460   10.4580   11.3400 C.2   235  PHE235      0.2290
     91  O        -73.5270    9.6870   11.8730 O.2   235  PHE235     -0.2864
     92  CB       -73.5660   12.5260   12.5590 C.3   235  PHE235      0.0560
     93  CG       -73.3030   13.5020   13.6890 C.ar  235  PHE235     -0.0200
     94  CD1      -72.7480   14.7680   13.4330 C.ar  235  PHE235     -0.0042
     95  CD2      -73.6480   13.1740   15.0070 C.ar  235  PHE235     -0.0042
     96  CE1      -72.4980   15.6700   14.4640 C.ar  235  PHE235     -0.0003
     97  CE2      -73.4040   14.0720   16.0500 C.ar  235  PHE235     -0.0003
     98  CZ       -72.8080   15.3290   15.7720 C.ar  235  PHE235     -0.0000
     99  N        -86.1100   18.7080   20.4360 N.3   322  ARG322     -0.1231
    100  CA       -84.7090   18.7070   20.8220 C.3   322  ARG322      0.1694
    101  C        -84.0050   20.0620   20.5460 C.2   322  ARG322      0.2591
    102  O        -83.2260   20.5990   21.3990 O.2   322  ARG322     -0.2718
    103  CB       -84.0900   17.5470   20.0430 C.3   322  ARG322      0.0321
    104  CG       -82.6610   17.6180   19.7750 C.3   322  ARG322      0.0489
    105  CD       -82.2230   17.8330   18.3180 C.3   322  ARG322      0.2205
    106  NE       -80.8080   18.0940   18.5460 N.pl3 322  ARG322     -0.0865
    107  CZ       -79.8020   18.0680   17.6880 C.cat 322  ARG322      0.5346
    108  NH1      -78.6150   18.3410   18.1950 N.pl3 322  ARG322      0.1354
    109  NH2      -79.9410   17.8010   16.3910 N.pl3 322  ARG322      0.1354
    110  N        -84.3030   20.6100   19.3680 N.am  323  ARG323     -0.1980
    111  CA       -83.7930   21.8980   18.9190 C.3   323  ARG323      0.1597
    112  C        -84.3980   23.1020   19.6420 C.2   323  ARG323      0.2287
    113  O        -83.8420   24.2180   19.5970 O.2   323  ARG323     -0.2864
    114  CB       -84.0270   22.0470   17.4120 C.3   323  ARG323      0.0334
    115  CG       -83.1510   21.1240   16.5880 C.3   323  ARG323      0.0492
    116  CD       -81.6520   21.3050   16.8840 C.3   323  ARG323      0.2205
    117  NE       -80.8780   20.8500   15.7250 N.pl3 323  ARG323     -0.0865
    118  CZ       -79.5960   21.1140   15.5140 C.cat 323  ARG323      0.5346
    119  NH1      -78.9040   21.8110   16.4030 N.pl3 323  ARG323      0.1354
    120  NH2      -79.0070   20.6670   14.4100 N.pl3 323  ARG323      0.1354
    121  N        -79.6130   21.1350   24.3710 N.3   327  LEU327     -0.1231
    122  CA       -78.3360   21.8530   24.2990 C.3   327  LEU327      0.1693
    123  C        -78.1460   22.6490   22.9920 C.2   327  LEU327      0.2591
    124  O        -77.7600   23.8130   23.0300 O.2   327  LEU327     -0.2718
    125  CB       -77.1950   20.8380   24.4440 C.3   327  LEU327      0.0284
    126  CG       -75.8310   21.1660   25.0500 C.3   327  LEU327      0.0019
    127  CD1      -74.8080   20.1550   24.5660 C.3   327  LEU327      0.0001
    128  CD2      -75.3480   22.5790   24.7380 C.3   327  LEU327      0.0001
    129  N        -78.3890   22.0110   21.8460 N.am  328  ALA328     -0.1980
    130  CA       -78.0860   22.6050   20.5340 C.3   328  ALA328      0.1597
    131  C        -79.3520   23.1310   19.8740 C.2   328  ALA328      0.2287
    132  O        -80.2240   22.3700   19.4800 O.2   328  ALA328     -0.2864
    133  CB       -77.3840   21.6000   19.6310 C.3   328  ALA328      0.0319
@<TRIPOS>BOND
     1    71    72    1
     2    72    73    1
     3    72    75    1
     4    64    63    2
     5    73    74    2
     6    75    76    1
     7    63    62    1
     8    61    62    1
     9    62    65    1
    10    79    80    1
    11    76    77   ar
    12    76    78   ar
    13    56    55    2
    14    55    54    1
    15    80    83    1
    16    80    81    1
    17    53    54    1
    18    65    66    1
    19    67    66   ar
    20    67    69   ar
    21    66    68   ar
    22    54    57    1
    23    83    84    1
    24    69    70   ar
    25    81    88   am
    26    81    82    2
    27    68    70   ar
    28    88    89    1
    29    90    91    2
    30    90    89    1
    31    57    58    1
    32    84    85    1
    33    89    92    1
    34    58    60   ar
    35    58    59   ar
    36    92    93    1
    37    85    87   ar
    38    85    86   ar
    39    94    93   ar
    40    94    96   ar
    41    93    95   ar
    42   120   118    1
    43    96    98   ar
    44    95    97   ar
    45     4     3    2
    46     3     2    1
    47   118   117    2
    48   118   119    1
    49   117   116    1
    50    98    97   ar
    51   109   107    1
    52   115   116    1
    53   115   114    1
    54     2     1    1
    55     2     5    1
    56    36    35    1
    57     5     6    1
    58    37    35    1
    59   114   111    1
    60    35    32    1
    61   107   108    1
    62   107   106    2
    63    52    50    1
    64    51    50    1
    65   105   106    1
    66   105   104    1
    67     6     7    1
    68     6     8    1
    69    50    47    1
    70   111   110    1
    71   111   112    1
    72    32    31    1
    73    32    33    1
    74   110   101   am
    75    31    25   am
    76   132   131    2
    77   113   112    2
    78   133   130    1
    79    30    28    1
    80   104   103    1
    81   131   130    1
    82    33    34    2
    83   103   100    1
    84    29    27    1
    85    27    28    1
    86    27    24    1
    87    47    48    1
    88    47    46    1
    89    99   100    1
    90   130   129    1
    91   101   100    1
    92   101   102    2
    93    25    24    1
    94    25    26    2
    95    49    48    2
    96    46    40   am
    97    23    24    1
    98   129   123   am
    99    40    41    2
   100    40    39    1
   101    42    39    1
   102    42    43    1
   103    44    43    1
   104    12    11    2
   105    39    38    1
   106    43    45    1
   107    15    17   ar
   108    15    14   ar
   109   123   124    2
   110   123   122    1
   111    13    14    1
   112    13    10    1
   113    17    18   ar
   114    11    10    1
   115    14    16   ar
   116   122   121    1
   117   122   125    1
   118    10     9    1
   119   125   126    1
   120   127   126    1
   121   128   126    1
   122    18    16   ar
   123    18    20   ar
   124    16    19   ar
   125    20    22   ar
   126    19    21   ar
   127    22    21   ar
