@<TRIPOS>MOLECULE
tmp/2puqB00.pdb
 186 184 0 0 0
SMALL
GASTEIGER

@<TRIPOS>ATOM
      1  N         -3.5640   -1.8950  -10.7010 N.3    26  CYS26      -0.1235
      2  CA        -4.8610   -2.0980  -10.0930 C.3    26  CYS26       0.1677
      3  C         -4.7250   -2.7470   -8.7140 C.2    26  CYS26       0.2270
      4  O         -3.6370   -3.1390   -8.3040 O.2    26  CYS26      -0.2867
      5  CB        -5.7650   -2.9550  -11.0540 C.3    26  CYS26       0.0956
      6  SG        -6.7560   -1.6060  -11.9680 S.3    26  CYS26      -0.0801
      7  N        -11.9290   -2.8940  -16.2960 N.3    41  HIS41      -0.1226
      8  CA       -11.4930   -1.6980  -17.0670 C.3    41  HIS41       0.1752
      9  C        -10.0120   -1.5120  -16.9020 C.2    41  HIS41       0.2596
     10  O         -9.4190   -0.6800  -17.5660 O.2    41  HIS41      -0.2718
     11  CB       -12.1990   -0.3890  -16.6090 C.3    41  HIS41       0.0759
     12  CG       -11.7420    0.1230  -15.2410 C.ar   41  HIS41       0.0818
     13  ND1      -12.4190   -0.1520  -14.0710 N.ar   41  HIS41      -0.2268
     14  CD2      -10.7380    0.9630  -14.8860 C.ar   41  HIS41       0.1154
     15  CE1      -11.8040    0.4040  -13.0380 C.ar   41  HIS41       0.1986
     16  NE2      -10.7640    1.0720  -13.4950 N.ar   41  HIS41      -0.2212
     17  N         -9.4290   -2.1770  -15.9150 N.am   42  CYS42      -0.1970
     18  CA        -7.9720   -2.1390  -15.7250 C.3    42  CYS42       0.1712
     19  C         -7.2260   -2.7640  -16.9040 C.2    42  CYS42       0.2296
     20  O         -6.0550   -2.5310  -17.0420 O.2    42  CYS42      -0.2864
     21  CB        -7.5930   -2.9270  -14.5250 C.3    42  CYS42       0.0983
     22  SG        -8.3380   -2.2720  -13.0720 S.3    42  CYS42      -0.0798
     23  N        -14.1390    0.7860  -22.0430 N.3    85  GLY85      -0.1210
     24  CA       -14.3300    2.2370  -22.0180 C.3    85  GLY85       0.1956
     25  C        -15.5770    2.7000  -21.2820 C.2    85  GLY85       0.2613
     26  O        -15.6580    3.8310  -20.8450 O.2    85  GLY85      -0.2717
     27  N        -16.5390    1.7970  -21.1190 N.am   86  THR86      -0.1938
     28  CA       -17.7850    2.0940  -20.3920 C.3    86  THR86       0.2028
     29  C        -17.7280    1.5260  -18.9480 C.2    86  THR86       0.2642
     30  O        -16.7000    1.0480  -18.5130 O.2    86  THR86      -0.2714
     31  CB       -19.0280    1.6020  -21.1610 C.3    86  THR86       0.1808
     32  OG1      -19.0890    0.1830  -21.0880 O.3    86  THR86      -0.2208
     33  CG2      -18.9690    2.0400  -22.6720 C.3    86  THR86       0.0379
     34  N        -18.8370    1.5730  -18.2200 N.am   87  THR87      -0.1950
     35  CA       -18.7890    1.3480  -16.7440 C.3    87  THR87       0.1897
     36  C        -19.5130    0.1050  -16.3030 C.2    87  THR87       0.2313
     37  O        -19.3000   -0.3600  -15.1820 O.2    87  THR87      -0.2863
     38  CB       -19.4070    2.4790  -15.9970 C.3    87  THR87       0.1794
     39  OG1      -20.5520    2.9310  -16.7020 O.3    87  THR87      -0.2208
     40  CG2      -18.4480    3.6530  -15.9050 C.3    87  THR87       0.0378
     41  N        -18.1830   -4.1820  -14.7210 N.3    90  ASP90      -0.1239
     42  CA       -16.7730   -3.9620  -14.4660 C.3    90  ASP90       0.1674
     43  C        -16.2160   -4.9400  -13.4500 C.2    90  ASP90       0.2266
     44  O        -16.0140   -4.5900  -12.2840 O.2    90  ASP90      -0.2867
     45  CB       -16.6530   -2.4740  -14.0780 C.3    90  ASP90       0.1410
     46  CG       -15.2050   -1.9580  -14.0020 C.2    90  ASP90       0.3668
     47  OD1      -14.3980   -2.5550  -14.6860 O.co2  90  ASP90      -0.2456
     48  OD2      -14.8730   -0.9440  -13.2780 O.co2  90  ASP90      -0.2456
     49  N        -24.0150   13.8080  -18.8390 N.3   167  ASP167     -0.1225
     50  CA       -23.3660   12.6160  -19.4010 C.3   167  ASP167      0.1805
     51  C        -22.7950   11.5970  -18.4090 C.2   167  ASP167      0.2598
     52  O        -22.1500   10.6320  -18.8470 O.2   167  ASP167     -0.2718
     53  CB       -22.1880   13.0080  -20.3440 C.3   167  ASP167      0.1424
     54  CG       -22.5890   13.6610  -21.6460 C.2   167  ASP167      0.3668
     55  OD1      -23.7940   13.8550  -21.8760 O.co2 167  ASP167     -0.2456
     56  OD2      -21.6290   13.9680  -22.3990 O.co2 167  ASP167     -0.2456
     57  N        -23.0140   11.7840  -17.0920 N.am  168  SER168     -0.1938
     58  CA       -22.5800   10.7500  -16.1120 C.3   168  SER168      0.2040
     59  C        -23.3960    9.4920  -16.3980 C.2   168  SER168      0.2485
     60  O        -24.5740    9.5810  -16.7620 O.2   168  SER168     -0.2729
     61  CB       -22.6640   11.1740  -14.6220 C.3   168  SER168      0.2129
     62  OG       -23.9630   11.6580  -14.3140 O.3   168  SER168     -0.2179
     63  N        -22.7490    8.3200  -16.3200 N.am  169  PRO169     -0.2726
     64  CA       -23.3480    7.0230  -16.6360 C.3   169  PRO169      0.1402
     65  C        -24.4350    6.6350  -15.6740 C.2   169  PRO169      0.2269
     66  O        -24.4780    7.1590  -14.5640 O.2   169  PRO169     -0.2865
     67  CB       -22.1630    6.0720  -16.5060 C.3   169  PRO169      0.0296
     68  CG       -20.9750    6.9640  -16.6480 C.3   169  PRO169      0.0237
     69  CD       -21.3330    8.1890  -15.9540 C.3   169  PRO169      0.0939
     70  N        -13.2720    8.8470   -0.1480 N.3   186  ASP186     -0.1225
     71  CA       -13.6940    8.0730   -1.3450 C.3   186  ASP186      0.1805
     72  C        -12.6440    7.0410   -1.6960 C.2   186  ASP186      0.2598
     73  O        -11.5840    7.0090   -1.1080 O.2   186  ASP186     -0.2718
     74  CB       -13.8820    8.9880   -2.5430 C.3   186  ASP186      0.1424
     75  CG       -14.8520    8.3900   -3.6160 C.2   186  ASP186      0.3668
     76  OD1      -15.2250    7.1910   -3.5480 O.co2 186  ASP186     -0.2456
     77  OD2      -15.3210    9.1610   -4.4630 O.co2 186  ASP186     -0.2456
     78  N        -12.9380    6.1890   -2.6790 N.am  187  SER187     -0.1938
     79  CA       -11.8700    5.4610   -3.2860 C.3   187  SER187      0.2055
     80  C        -11.4550    6.3280   -4.4950 C.2   187  SER187      0.2643
     81  O        -12.1630    7.2970   -4.8740 O.2   187  SER187     -0.2714
     82  CB       -12.3050    4.0460   -3.6390 C.3   187  SER187      0.2130
     83  OG       -13.3530    4.0640   -4.5900 O.3   187  SER187     -0.2179
     84  N        -10.3450    5.9840   -5.1200 N.am  188  CYS188     -0.1953
     85  CA        -9.7860    6.8820   -6.0650 C.3   188  CYS188      0.1843
     86  C         -9.1670    6.0770   -7.2170 C.2   188  CYS188      0.2625
     87  O         -9.3460    4.8620   -7.3130 O.2   188  CYS188     -0.2714
     88  CB        -8.8290    7.9010   -5.3590 C.3   188  CYS188      0.0997
     89  SG        -8.6130    9.5300   -6.2960 S.3   188  CYS188     -0.0797
     90  N         -8.4640    6.7450   -8.1040 N.am  189  LYS189     -0.1963
     91  CA        -7.8630    6.0650   -9.2290 C.3   189  LYS189      0.1728
     92  C         -6.7390    5.2050   -8.6750 C.2   189  LYS189      0.2616
     93  O         -6.0890    5.5930   -7.6900 O.2   189  LYS189     -0.2715
     94  CB        -7.2920    7.0650  -10.2000 C.3   189  LYS189      0.0311
     95  CG        -8.3380    7.6720  -11.1410 C.3   189  LYS189      0.0038
     96  CD        -9.4580    8.3270  -10.3190 C.3   189  LYS189      0.0206
     97  CE       -10.8700    8.1910  -10.9320 C.3   189  LYS189      0.1093
     98  NZ       -11.9300    8.9920  -10.2030 N.3   189  LYS189     -0.1314
     99  N         -6.5570    4.0250   -9.2730 N.am  190  GLY190     -0.1955
    100  CA        -5.6680    2.9680   -8.8120 C.3   190  GLY190      0.1869
    101  C         -6.1160    2.0770   -7.6840 C.2   190  GLY190      0.2309
    102  O         -5.4400    1.0710   -7.3860 O.2   190  GLY190     -0.2863
    103  N         -8.9890    0.9520   -8.2020 N.3   192  SER192     -0.1217
    104  CA        -9.7930    0.0520   -8.9000 C.3   192  SER192      0.1889
    105  C         -9.4370   -1.3580   -8.7660 C.2   192  SER192      0.2288
    106  O         -8.2820   -1.7070   -8.7830 O.2   192  SER192     -0.2866
    107  CB        -9.6260    0.2900  -10.4800 C.3   192  SER192      0.2089
    108  OG       -10.6270    1.1980  -10.9140 O.3   192  SER192     -0.2183
    109  N        -14.0340   -1.7750   -6.3860 N.3   210  VAL210     -0.1231
    110  CA       -13.9020   -0.3500   -6.7120 C.3   210  VAL210      0.1692
    111  C        -14.0620   -0.2090   -8.2420 C.2   210  VAL210      0.2593
    112  O        -13.3420   -0.9210   -8.8720 O.2   210  VAL210     -0.2718
    113  CB       -12.5730    0.0590   -6.4020 C.3   210  VAL210      0.0266
    114  CG1      -12.3110    1.5100   -6.7530 C.3   210  VAL210      0.0020
    115  CG2      -12.3690    0.0720   -4.6060 C.3   210  VAL210      0.0020
    116  N        -14.8530    0.7320   -8.7820 N.am  211  SER211     -0.1938
    117  CA       -15.1800    0.6960  -10.2390 C.3   211  SER211      0.2055
    118  C        -15.0340    2.0920  -10.8120 C.2   211  SER211      0.2643
    119  O        -14.0720    2.3110  -11.4760 O.2   211  SER211     -0.2714
    120  CB       -16.5580    0.1630  -10.4180 C.3   211  SER211      0.2130
    121  OG       -16.8020    0.0550  -11.8090 O.3   211  SER211     -0.2179
    122  N        -15.8940    3.0700  -10.4830 N.am  212  TRP212     -0.1959
    123  CA       -15.8290    4.4070  -11.0170 C.3   212  TRP212      0.1771
    124  C        -16.6410    5.3760  -10.2050 C.2   212  TRP212      0.2620
    125  O        -16.9120    5.1170   -9.0430 O.2   212  TRP212     -0.2715
    126  CB       -16.4800    4.3230  -12.4040 C.3   212  TRP212      0.0590
    127  CG       -18.0140    4.1080  -12.3720 C.ar  212  TRP212      0.0006
    128  CD1      -18.6850    2.9200  -12.3070 C.ar  212  TRP212      0.0946
    129  CD2      -19.0320    5.1420  -12.4560 C.ar  212  TRP212      0.0152
    130  NE1      -20.0140    3.1430  -12.3070 N.ar  212  TRP212     -0.2442
    131  CE2      -20.2710    4.4890  -12.4510 C.ar  212  TRP212      0.0810
    132  CE3      -19.0030    6.5480  -12.5470 C.ar  212  TRP212      0.0012
    133  CZ2      -21.5180    5.2050  -12.5500 C.ar  212  TRP212      0.0191
    134  CZ3      -20.2340    7.2540  -12.5820 C.ar  212  TRP212      0.0001
    135  CH2      -21.4710    6.5690  -12.5880 C.ar  212  TRP212      0.0015
    136  N        -16.8380    6.6190  -10.6200 N.am  213  GLY213     -0.1940
    137  CA       -16.3940    7.7370   -9.8090 C.3   213  GLY213      0.2014
    138  C        -16.7120    9.0240  -10.5340 C.2   213  GLY213      0.2639
    139  O        -16.4030    9.0950  -11.6820 O.2   213  GLY213     -0.2714
    140  N        -17.2850   10.0510   -9.9120 N.am  214  GLN214     -0.1963
    141  CA       -17.0680   11.4030  -10.5100 C.3   214  GLN214      0.1733
    142  C        -15.8890   12.0410   -9.8860 C.2   214  GLN214      0.2616
    143  O        -16.0920   12.6140   -8.8580 O.2   214  GLN214     -0.2715
    144  CB       -18.1720   12.3720  -10.1710 C.3   214  GLN214      0.0408
    145  CG       -19.3160   12.2030  -11.0460 C.3   214  GLN214      0.0908
    146  CD       -19.2440   13.0700  -12.2190 C.2   214  GLN214      0.2608
    147  OE1      -18.5530   14.0880  -12.2190 O.2   214  GLN214     -0.2717
    148  NE2      -20.0140   12.7110  -13.2260 N.am  214  GLN214     -0.0878
    149  N        -14.6790   11.9780  -10.4410 N.am  215  GLY215     -0.1955
    150  CA       -13.5030   12.3440   -9.6130 C.3   215  GLY215      0.1869
    151  C        -13.3860   11.5060   -8.3360 C.2   215  GLY215      0.2309
    152  O        -13.8340   10.3490   -8.2980 O.2   215  GLY215     -0.2863
    153  N        -20.9680   10.1290   -4.7110 N.3   222  PHE222     -0.1227
    154  CA       -20.4370    8.9560   -3.9380 C.3   222  PHE222      0.1736
    155  C        -19.6030    8.0740   -4.8860 C.2   222  PHE222      0.2596
    156  O        -19.7660    8.0900   -6.1070 O.2   222  PHE222     -0.2718
    157  CB       -21.6070    8.0880   -3.3890 C.3   222  PHE222      0.0547
    158  CG       -22.5590    8.8210   -2.5460 C.ar  222  PHE222     -0.0202
    159  CD1      -22.4230    8.8340   -1.1440 C.ar  222  PHE222     -0.0042
    160  CD2      -23.5830    9.5130   -3.1140 C.ar  222  PHE222     -0.0042
    161  CE1      -23.3200    9.5430   -0.4190 C.ar  222  PHE222     -0.0003
    162  CE2      -24.4950   10.2170   -2.3920 C.ar  222  PHE222     -0.0003
    163  CZ       -24.3630   10.2190   -1.0120 C.ar  222  PHE222     -0.0000
    164  N        -18.7650    7.2460   -4.2910 N.am  223  GLY223     -0.1942
    165  CA       -18.1410    6.1340   -4.9620 C.3   223  GLY223      0.2014
    166  C        -19.1460    5.1400   -5.4850 C.2   223  GLY223      0.2639
    167  O        -20.0260    4.7580   -4.7380 O.2   223  GLY223     -0.2714
    168  N        -18.9540    4.6950   -6.7560 N.am  224  VAL224     -0.1963
    169  CA       -19.6410    3.5670   -7.3200 C.3   224  VAL224      0.1727
    170  C        -18.8450    2.2430   -7.4370 C.2   224  VAL224      0.2616
    171  O        -17.7180    2.2390   -7.8850 O.2   224  VAL224     -0.2715
    172  CB       -20.1020    3.9540   -8.8120 C.3   224  VAL224      0.0290
    173  CG1      -21.1630    2.9120   -9.1830 C.3   224  VAL224      0.0023
    174  CG2      -20.7930    5.3210   -8.7120 C.3   224  VAL224      0.0023
    175  N        -19.4370    1.1150   -7.0390 N.am  225  TYR225     -0.1974
    176  CA       -18.7400   -0.1560   -6.9970 C.3   225  TYR225      0.1639
    177  C        -19.4570   -1.1970   -7.8800 C.2   225  TYR225      0.2290
    178  O        -20.6440   -1.1410   -8.0150 O.2   225  TYR225     -0.2864
    179  CB       -18.8440   -0.7410   -5.6020 C.3   225  TYR225      0.0560
    180  CG       -18.1400    0.2490   -4.6340 C.ar  225  TYR225     -0.0198
    181  CD1      -18.6890    1.4920   -4.3680 C.ar  225  TYR225     -0.0009
    182  CD2      -16.7510    0.1060   -4.3740 C.ar  225  TYR225     -0.0009
    183  CE1      -17.9020    2.4520   -3.3360 C.ar  225  TYR225      0.0417
    184  CE2      -16.0040    1.1110   -3.6180 C.ar  225  TYR225      0.0417
    185  CZ       -16.6090    2.2580   -3.1670 C.ar  225  TYR225      0.1957
    186  OH       -15.8530    3.1680   -2.4180 O.3   225  TYR225     -0.2866
@<TRIPOS>BOND
     1    33    31    1
     2    56    54   ar
     3    23    24    1
     4    24    25    1
     5    55    54   ar
     6    54    53    1
     7    25    27   am
     8    25    26    2
     9    31    32    1
    10    31    28    1
    11    27    28    1
    12    28    29    1
    13    53    50    1
    14    50    49    1
    15    50    51    1
    16    29    30    2
    17    29    34   am
    18    52    51    2
    19    51    57   am
    20    34    35    1
    21    10     9    2
    22    57    58    1
    23     8     9    1
    24     8    11    1
    25     8     7    1
    26    20    19    2
    27    19    18    1
    28     9    17   am
    29    60    59    2
    30    35    36    1
    31    35    38    1
    32    39    38    1
    33    68    67    1
    34    68    69    1
    35    64    67    1
    36    64    63    1
    37    64    65    1
    38    11    12    1
    39    59    63   am
    40    59    58    1
    41    63    69    1
    42    36    37    2
    43    58    61    1
    44    38    40    1
    45    17    18    1
    46    18    21    1
    47    65    66    2
    48    12    14   ar
    49    12    13   ar
    50    14    16   ar
    51    41    42    1
    52    47    46   ar
    53    61    62    1
    54    21    22    1
    55    42    45    1
    56    42    43    1
    57    45    46    1
    58    13    15   ar
    59    46    48   ar
    60    16    15   ar
    61    43    44    2
    62   148   146   am
    63    22     6    1
    64   135   134   ar
    65   135   133   ar
    66   134   132   ar
    67   133   131   ar
    68   132   129   ar
    69   129   131   ar
    70   129   127   ar
    71   131   130   ar
    72   126   127    1
    73   126   123    1
    74   127   128   ar
    75   130   128   ar
    76   146   147    2
    77   146   145    1
    78     6     5    1
    79   121   120    1
    80   139   138    2
    81   119   118    2
    82    95    96    1
    83    95    94    1
    84     5     2    1
    85   145   144    1
    86   123   122    1
    87   123   124    1
    88    97    96    1
    89    97    98    1
    90   108   107    1
    91   118   122   am
    92   118   117    1
    93     1     2    1
    94   136   124   am
    95   136   137    1
    96   138   140   am
    97   138   137    1
    98   141   144    1
    99   141   140    1
   100   141   142    1
   101   107   104    1
   102   149   142   am
   103   149   150    1
   104   120   117    1
   105   117   116    1
   106   124   125    2
   107    94    91    1
   108     2     3    1
   109   142   143    2
   110   150   151    1
   111    99   100    1
   112    99    92   am
   113    91    92    1
   114    91    90    1
   115   173   172    1
   116   104   105    1
   117   104   103    1
   118   112   111    2
   119   172   174    1
   120   172   169    1
   121   100   101    1
   122   106   105    2
   123   116   111   am
   124     3     4    2
   125    92    93    2
   126   151   152    2
   127   111   110    1
   128    90    86   am
   129   178   177    2
   130   171   170    2
   131   177   176    1
   132   101   102    2
   133   170   169    1
   134   170   175   am
   135   169   168    1
   136    87    86    2
   137    86    85    1
   138   175   176    1
   139   176   179    1
   140   168   166   am
   141   114   113    1
   142   110   113    1
   143   110   109    1
   144   113   115    1
   145    89    88    1
   146   156   155    2
   147    85    88    1
   148    85    84    1
   149   179   180    1
   150   166   165    1
   151   166   167    2
   152    84    80   am
   153   165   164    1
   154   155   164   am
   155   155   154    1
   156    81    80    2
   157   153   154    1
   158   180   182   ar
   159   180   181   ar
   160    83    82    1
   161    80    79    1
   162    77    75   ar
   163   182   184   ar
   164   181   183   ar
   165   154   157    1
   166    82    79    1
   167   184   185   ar
   168    75    76   ar
   169    75    74    1
   170   157   158    1
   171   183   185   ar
   172    79    78    1
   173   185   186    1
   174   160   158   ar
   175   160   162   ar
   176    78    72   am
   177   158   159   ar
   178    74    71    1
   179   162   163   ar
   180    72    71    1
   181    72    73    2
   182    71    70    1
   183   159   161   ar
   184   163   161   ar
