@<TRIPOS>MOLECULE
tmp/2putB01.pdb
 108 101 0 0 0
SMALL
GASTEIGER

@<TRIPOS>ATOM
      1  N         49.5170  -40.5850   64.9400 N.3    55  CYS55      -0.1221
      2  CA        50.1260  -41.4770   63.9500 C.3    55  CYS55       0.1808
      3  C         49.0320  -41.9580   63.0150 C.2    55  CYS55       0.2602
      4  O         47.9100  -42.1450   63.4800 O.2    55  CYS55      -0.2717
      5  CB        50.6770  -42.7520   64.6750 C.3    55  CYS55       0.0970
      6  SG        52.0340  -42.3060   65.7080 S.3    55  CYS55      -0.0800
      7  N         49.3790  -42.1580   61.7330 N.am   56  GLY56      -0.1942
      8  CA        48.5430  -42.8730   60.7270 C.3    56  GLY56       0.2014
      9  C         47.1550  -42.2790   60.5800 C.2    56  GLY56       0.2640
     10  O         47.0160  -41.0510   60.4030 O.2    56  GLY56      -0.2714
     11  N         46.1200  -43.1140   60.6940 N.am   57  THR57      -0.1936
     12  CA        44.7550  -42.6140   60.4860 C.3    57  THR57       0.2028
     13  C         44.3230  -41.5940   61.5620 C.2    57  THR57       0.2642
     14  O         43.5210  -40.6830   61.3140 O.2    57  THR57      -0.2714
     15  CB        43.7710  -43.8410   60.4080 C.3    57  THR57       0.1808
     16  OG1       44.0790  -44.5600   59.2190 O.3    57  THR57      -0.2208
     17  CG2       42.3210  -43.3990   60.3950 C.3    57  THR57       0.0379
     18  N         44.8390  -41.7390   62.7660 N.am   58  SER58      -0.1949
     19  CA        44.5670  -40.7460   63.8130 C.3    58  SER58       0.1924
     20  C         45.1510  -39.3520   63.4800 C.2    58  SER58       0.2314
     21  O         44.5890  -38.3190   63.8630 O.2    58  SER58      -0.2863
     22  CB        45.1470  -41.2250   65.1300 C.3    58  SER58       0.2116
     23  OG        44.4190  -42.3770   65.5530 O.3    58  SER58      -0.2180
     24  N         45.8290  -37.9050   69.7120 N.3   101  VAL101     -0.1231
     25  CA        44.6860  -38.6900   69.2090 C.3   101  VAL101      0.1692
     26  C         45.1460  -40.1130   68.9590 C.2   101  VAL101      0.2593
     27  O         46.1070  -40.3140   68.2510 O.2   101  VAL101     -0.2718
     28  CB        44.0860  -38.0320   67.9660 C.3   101  VAL101      0.0266
     29  CG1       42.8230  -38.7380   67.5490 C.3   101  VAL101      0.0020
     30  CG2       43.7330  -36.5240   68.3210 C.3   101  VAL101      0.0020
     31  N         44.4910  -41.0970   69.5840 N.am  102  SER102     -0.1938
     32  CA        44.9390  -42.4790   69.4480 C.3   102  SER102      0.2055
     33  C         43.7820  -43.4220   69.6980 C.2   102  SER102      0.2643
     34  O         43.1350  -43.3200   70.7160 O.2   102  SER102     -0.2714
     35  CB        46.1150  -42.8310   70.4170 C.3   102  SER102      0.2130
     36  OG        46.4550  -44.2270   70.2730 O.3   102  SER102     -0.2179
     37  N         43.5710  -44.3590   68.7770 N.am  103  GLN103     -0.1963
     38  CA        42.5440  -45.3990   68.9490 C.3   103  GLN103      0.1733
     39  C         42.9960  -46.3130   70.0970 C.2   103  GLN103      0.2617
     40  O         42.3180  -46.4210   71.0930 O.2   103  GLN103     -0.2715
     41  CB        42.3990  -46.2180   67.6530 C.3   103  GLN103      0.0408
     42  CG        41.2050  -47.2120   67.6100 C.3   103  GLN103      0.0908
     43  CD        41.3070  -48.3830   68.5970 C.2   103  GLN103      0.2608
     44  OE1       40.4980  -48.4950   69.5220 O.2   103  GLN103     -0.2717
     45  NE2       42.2840  -49.2680   68.3980 N.am  103  GLN103     -0.0878
     46  N         44.1630  -46.9230   69.9450 N.am  104  SER104     -0.1950
     47  CA        44.6490  -47.9400   70.8870 C.3   104  SER104      0.1924
     48  C         45.1450  -47.3440   72.1980 C.2   104  SER104      0.2314
     49  O         45.1450  -48.0250   73.2170 O.2   104  SER104     -0.2863
     50  CB        45.7570  -48.7930   70.2680 C.3   104  SER104      0.2116
     51  OG        46.9210  -47.9990   70.0480 O.3   104  SER104     -0.2180
     52  N         50.2570  -46.7380   70.9640 N.3   107  THR107     -0.1218
     53  CA        51.2320  -46.6220   69.8760 C.3   107  THR107      0.1862
     54  C         52.5230  -46.0260   70.4010 C.2   107  THR107      0.2287
     55  O         52.4940  -44.9690   71.0610 O.2   107  THR107     -0.2866
     56  CB        50.6310  -45.7180   68.8100 C.3   107  THR107      0.1770
     57  OG1       49.4200  -46.3370   68.4000 O.3   107  THR107     -0.2211
     58  CG2       51.5030  -45.6090   67.6670 C.3   107  THR107      0.0375
     59  N         53.4130  -42.2680   69.7240 N.3   110  SER110     -0.1217
     60  CA        52.5160  -41.3530   70.4230 C.3   110  SER110      0.1889
     61  C         52.8640  -41.3090   71.8890 C.2   110  SER110      0.2288
     62  O         52.8110  -40.2450   72.4890 O.2   110  SER110     -0.2866
     63  CB        51.0450  -41.7750   70.2380 C.3   110  SER110      0.2089
     64  OG        50.7460  -41.7280   68.8580 O.3   110  SER110     -0.2183
     65  N         42.2120  -54.7170   61.5130 N.3   153  VAL153     -0.1231
     66  CA        43.6010  -54.2540   61.6510 C.3   153  VAL153      0.1692
     67  C         43.7330  -52.7570   61.3220 C.2   153  VAL153      0.2592
     68  O         44.6220  -52.0860   61.8260 O.2   153  VAL153     -0.2718
     69  CB        44.6080  -55.0990   60.8150 C.3   153  VAL153      0.0266
     70  CG1       44.4170  -56.5730   61.0930 C.3   153  VAL153      0.0020
     71  CG2       44.4890  -54.8180   59.3240 C.3   153  VAL153      0.0020
     72  N         42.8190  -52.2530   60.4980 N.am  154  ALA154     -0.1966
     73  CA        42.8510  -50.8770   60.0370 C.3   154  ALA154      0.1728
     74  C         41.7190  -50.0630   60.6620 C.2   154  ALA154      0.2616
     75  O         40.6510  -50.5910   60.9250 O.2   154  ALA154     -0.2715
     76  CB        42.7240  -50.8610   58.5410 C.3   154  ALA154      0.0334
     77  N         41.9440  -48.7630   60.8610 N.am  155  SER155     -0.1950
     78  CA        40.9490  -47.9320   61.5120 C.3   155  SER155      0.1924
     79  C         39.8380  -47.4990   60.5550 C.2   155  SER155      0.2314
     80  O         40.0940  -46.9260   59.4770 O.2   155  SER155     -0.2863
     81  CB        41.6290  -46.7030   62.0940 C.3   155  SER155      0.2116
     82  OG        40.6470  -45.7320   62.4400 O.3   155  SER155     -0.2180
     83  N         45.9100  -44.0920   52.3060 N.3   239  LEU239     -0.1231
     84  CA        46.4160  -45.0110   53.3530 C.3   239  LEU239      0.1693
     85  C         45.6390  -46.3220   53.4170 C.2   239  LEU239      0.2591
     86  O         46.2340  -47.4120   53.5420 O.2   239  LEU239     -0.2718
     87  CB        46.4090  -44.3300   54.7430 C.3   239  LEU239      0.0284
     88  CG        47.0370  -45.0450   55.9540 C.3   239  LEU239      0.0019
     89  CD1       48.3920  -45.6500   55.6510 C.3   239  LEU239      0.0001
     90  CD2       47.2560  -44.0440   57.0600 C.3   239  LEU239      0.0001
     91  N         44.3160  -46.2260   53.3240 N.am  240  LYS240     -0.1980
     92  CA        43.4810  -47.4120   53.3500 C.3   240  LYS240      0.1596
     93  C         43.7690  -48.3100   52.1370 C.2   240  LYS240      0.2287
     94  O         43.8730  -49.5170   52.2880 O.2   240  LYS240     -0.2864
     95  CB        41.9820  -47.0550   53.4210 C.3   240  LYS240      0.0298
     96  CG        41.4810  -46.6630   54.8240 C.3   240  LYS240      0.0038
     97  CD        41.7720  -47.7860   55.8540 C.3   240  LYS240      0.0206
     98  CE        41.3590  -47.4120   57.2370 C.3   240  LYS240      0.1093
     99  NZ        42.3460  -46.4720   57.8730 N.3   240  LYS240     -0.1314
    100  N         47.2780  -49.8180   52.7280 N.3   243  GLU243     -0.1245
    101  CA        47.4060  -50.7400   53.8590 C.3   243  GLU243      0.1567
    102  C         46.4930  -51.9490   53.8020 C.2   243  GLU243      0.2260
    103  O         46.8260  -52.9840   54.3400 O.2   243  GLU243     -0.2867
    104  CB        47.2120  -50.0310   55.1810 C.3   243  GLU243      0.0388
    105  CG        48.4500  -49.3020   55.6080 C.3   243  GLU243      0.1160
    106  CD        48.3650  -48.7710   57.0120 C.2   243  GLU243      0.3649
    107  OE1       47.2520  -48.7790   57.5980 O.co2 243  GLU243     -0.2457
    108  OE2       49.4340  -48.3440   57.5170 O.co2 243  GLU243     -0.2457
@<TRIPOS>BOND
     1    93    94    2
     2    93    92    1
     3    83    84    1
     4   100   101    1
     5    91    92    1
     6    91    85   am
     7    92    95    1
     8    84    85    1
     9    84    87    1
    10    85    86    2
    11    95    96    1
    12   102   101    1
    13   102   103    2
    14   101   104    1
    15    87    88    1
    16    96    97    1
    17   104   105    1
    18   105   106    1
    19    89    88    1
    20    97    98    1
    21    88    90    1
    22   106   108   ar
    23   106   107   ar
    24    98    99    1
    25    76    73    1
    26    16    15    1
    27    71    69    1
    28    80    79    2
    29    73    72    1
    30    73    74    1
    31    17    15    1
    32    10     9    2
    33    15    12    1
    34    12    11    1
    35    12    13    1
    36    72    67   am
    37    79    78    1
    38     9    11   am
    39     9     8    1
    40    74    77   am
    41    74    75    2
    42     8     7    1
    43    69    70    1
    44    69    66    1
    45    77    78    1
    46    14    13    2
    47    67    66    1
    48    67    68    2
    49    78    81    1
    50    65    66    1
    51    13    18   am
    52     7     3   am
    53    81    82    1
    54    18    19    1
    55     3     4    2
    56     3     2    1
    57    20    19    1
    58    20    21    2
    59    19    22    1
    60     2     5    1
    61     2     1    1
    62     5     6    1
    63    22    23    1
    64    29    28    1
    65    42    41    1
    66    42    43    1
    67    41    38    1
    68    58    56    1
    69    28    30    1
    70    28    25    1
    71    27    26    2
    72    45    43   am
    73    57    56    1
    74    43    44    2
    75    37    38    1
    76    37    33   am
    77    56    53    1
    78    64    63    1
    79    38    39    1
    80    26    25    1
    81    26    31   am
    82    25    24    1
    83    32    31    1
    84    32    33    1
    85    32    35    1
    86    33    34    2
    87    59    60    1
    88    53    54    1
    89    53    52    1
    90    46    39   am
    91    46    47    1
    92    51    50    1
    93    39    40    2
    94    63    60    1
    95    50    47    1
    96    36    35    1
    97    54    55    2
    98    60    61    1
    99    47    48    1
   100    61    62    2
   101    48    49    2
