@<TRIPOS>MOLECULE
tmp/2puvD01.pdb
 103 95 0 0 0
SMALL
GASTEIGER

@<TRIPOS>ATOM
      1  N         52.9600   -8.1360  101.1380 N.3    55  CYS55      -0.1221
      2  CA        52.3300   -7.1790  102.0830 C.3    55  CYS55       0.1808
      3  C         53.4510   -6.3760  102.6960 C.2    55  CYS55       0.2602
      4  O         54.5880   -6.8750  102.8070 O.2    55  CYS55      -0.2717
      5  CB        51.6580   -7.9490  103.2610 C.3    55  CYS55       0.0970
      6  SG        50.3170   -9.0550  102.8570 S.3    55  CYS55      -0.0800
      7  N         53.1480   -5.1440  103.1120 N.am   56  GLY56      -0.1942
      8  CA        54.0650   -4.3790  103.9730 C.3    56  GLY56       0.2014
      9  C         55.4380   -4.1330  103.3500 C.2    56  GLY56       0.2640
     10  O         55.5390   -3.7420  102.1690 O.2    56  GLY56      -0.2714
     11  N         56.4810   -4.3180  104.1640 N.am   57  THR57      -0.1936
     12  CA        57.8520   -4.1100  103.7240 C.3    57  THR57       0.2028
     13  C         58.1850   -5.0710  102.5870 C.2    57  THR57       0.2642
     14  O         58.9640   -4.7340  101.6870 O.2    57  THR57      -0.2714
     15  CB        58.7910   -4.2280  104.9550 C.3    57  THR57       0.1808
     16  OG1       58.5690   -3.0560  105.7500 O.3    57  THR57      -0.2208
     17  CG2       60.2220   -4.2220  104.5800 C.3    57  THR57       0.0379
     18  N         57.6480   -6.2920  102.6390 N.am   58  SER58      -0.1949
     19  CA        57.8980   -7.2010  101.5120 C.3    58  SER58       0.1924
     20  C         57.3430   -6.6820  100.1810 C.2    58  SER58       0.2314
     21  O         57.9380   -6.9650   99.1420 O.2    58  SER58      -0.2863
     22  CB        57.3510   -8.6090  101.7610 C.3    58  SER58       0.2116
     23  OG        58.0810   -9.1780  102.8140 O.3    58  SER58      -0.2180
     24  N         56.6950  -12.7280   98.0440 N.3   101  VAL101     -0.1231
     25  CA        57.7770  -12.3300   98.9240 C.3   101  VAL101      0.1692
     26  C         57.2600  -12.1950  100.3690 C.2   101  VAL101      0.2593
     27  O         56.2940  -11.4620  100.6460 O.2   101  VAL101     -0.2718
     28  CB        58.3560  -10.9660   98.4470 C.3   101  VAL101      0.0266
     29  CG1       59.5890  -10.5940   99.2830 C.3   101  VAL101      0.0020
     30  CG2       58.7340  -11.0550   96.9620 C.3   101  VAL101      0.0020
     31  N         57.9050  -12.8870  101.3120 N.am  102  SER102     -0.1938
     32  CA        57.4220  -12.8640  102.6800 C.3   102  SER102      0.2055
     33  C         58.5630  -13.2260  103.6170 C.2   102  SER102      0.2643
     34  O         59.1770  -14.2600  103.4370 O.2   102  SER102     -0.2714
     35  CB        56.2400  -13.8620  102.8520 C.3   102  SER102      0.2130
     36  OG        55.8220  -13.9090  104.2060 O.3   102  SER102     -0.2179
     37  N         58.8480  -12.3760  104.6110 N.am  103  GLN103     -0.1963
     38  CA        59.8490  -12.7190  105.6550 C.3   103  GLN103      0.1733
     39  C         59.3770  -13.9720  106.4200 C.2   103  GLN103      0.2617
     40  O         60.0590  -14.9890  106.4440 O.2   103  GLN103     -0.2715
     41  CB        60.0300  -11.5540  106.6210 C.3   103  GLN103      0.0408
     42  CG        61.2110  -11.6880  107.6080 C.3   103  GLN103      0.0908
     43  CD        60.9550  -12.6650  108.7660 C.2   103  GLN103      0.2608
     44  OE1       61.7510  -13.5670  108.9790 O.2   103  GLN103     -0.2717
     45  NE2       59.8530  -12.5080  109.4700 N.am  103  GLN103     -0.0878
     46  N         58.1970  -13.8710  107.0330 N.am  104  SER104     -0.1950
     47  CA        57.6340  -14.9430  107.8520 C.3   104  SER104      0.1924
     48  C         57.1770  -16.1900  107.0940 C.2   104  SER104      0.2314
     49  O         57.1870  -17.3180  107.6410 O.2   104  SER104     -0.2863
     50  CB        56.4630  -14.3740  108.6570 C.3   104  SER104      0.2116
     51  OG        55.3180  -14.1200  107.8550 O.3   104  SER104     -0.2180
     52  N         52.1160  -14.7830  106.6720 N.3   107  THR107     -0.1218
     53  CA        51.1840  -13.6710  106.6500 C.3   107  THR107      0.1862
     54  C         49.9040  -14.0540  105.9860 C.2   107  THR107      0.2287
     55  O         49.9240  -14.6500  104.8850 O.2   107  THR107     -0.2866
     56  CB        51.7870  -12.5270  105.8680 C.3   107  THR107      0.1770
     57  OG1       53.0530  -12.2410  106.4440 O.3   107  THR107     -0.2211
     58  CG2       50.9110  -11.2880  105.9300 C.3   107  THR107      0.0375
     59  N         48.9710  -12.9900  102.3500 N.3   110  SER110     -0.1217
     60  CA        49.9310  -13.5570  101.3960 C.3   110  SER110      0.1889
     61  C         49.6110  -15.0000  101.1600 C.2   110  SER110      0.2288
     62  O         49.6690  -15.4870  100.0240 O.2   110  SER110     -0.2866
     63  CB        51.3580  -13.3740  101.9130 C.3   110  SER110      0.2089
     64  OG        51.6750  -11.9890  101.8260 O.3   110  SER110     -0.2183
     65  N         60.1400   -5.9930  115.6280 N.3   153  VAL153     -0.1245
     66  CA        58.7620   -5.9070  115.1350 C.3   153  VAL153      0.1561
     67  C         58.6660   -5.3280  113.7160 C.2   153  VAL153      0.2260
     68  O         57.7900   -5.7210  112.9500 O.2   153  VAL153     -0.2867
     69  CB        57.8310   -5.1310  116.1310 C.3   153  VAL153      0.0252
     70  CG1       57.9620   -5.7190  117.5570 C.3   153  VAL153      0.0019
     71  CG2       58.1230   -3.6280  116.1420 C.3   153  VAL153      0.0019
     72  N         60.5120   -4.8080  109.9250 N.3   155  SER155     -0.1217
     73  CA        61.4970   -5.5080  109.1210 C.3   155  SER155      0.1889
     74  C         62.6410   -4.6070  108.7180 C.2   155  SER155      0.2288
     75  O         62.4210   -3.5090  108.1810 O.2   155  SER155     -0.2866
     76  CB        60.8360   -6.0490  107.8600 C.3   155  SER155      0.2089
     77  OG        61.7870   -6.8090  107.1530 O.3   155  SER155     -0.2183
     78  N         56.7870    3.9380  106.0960 N.3   239  LEU239     -0.1231
     79  CA        56.2190    2.8270  106.8880 C.3   239  LEU239      0.1693
     80  C         56.9730    2.6440  108.2100 C.2   239  LEU239      0.2591
     81  O         56.3690    2.3720  109.2890 O.2   239  LEU239     -0.2718
     82  CB        56.1970    1.5080  106.0690 C.3   239  LEU239      0.0284
     83  CG        55.6810    0.2620  106.8020 C.3   239  LEU239      0.0019
     84  CD1       54.3190    0.4930  107.5080 C.3   239  LEU239      0.0001
     85  CD2       55.5680   -0.8830  105.7780 C.3   239  LEU239      0.0001
     86  N         58.2880    2.7310  108.1460 N.am  240  LYS240     -0.1980
     87  CA        59.1280    2.5020  109.3220 C.3   240  LYS240      0.1596
     88  C         58.8240    3.6360  110.3380 C.2   240  LYS240      0.2287
     89  O         58.6640    3.3870  111.5120 O.2   240  LYS240     -0.2864
     90  CB        60.6130    2.5700  108.9380 C.3   240  LYS240      0.0298
     91  CG        61.2130    1.2590  108.3880 C.3   240  LYS240      0.0038
     92  CD        61.2990    0.2470  109.4810 C.3   240  LYS240      0.0206
     93  CE        61.5300   -1.1040  108.8990 C.3   240  LYS240      0.1093
     94  NZ        60.3240   -1.6610  108.1100 N.3   240  LYS240     -0.1314
     95  N         55.3580    2.8950  111.8640 N.3   243  GLU243     -0.1245
     96  CA        55.3450    1.6360  112.6090 C.3   243  GLU243      0.1567
     97  C         56.1100    1.7000  113.9320 C.2   243  GLU243      0.2260
     98  O         55.6550    1.1710  114.9350 O.2   243  GLU243     -0.2867
     99  CB        56.0400    0.5750  111.7650 C.3   243  GLU243      0.0388
    100  CG        55.4580   -0.7780  111.7700 C.3   243  GLU243      0.1160
    101  CD        55.8600   -1.5360  110.4990 C.2   243  GLU243      0.3649
    102  OE1       57.0770   -1.5700  110.1780 O.co2 243  GLU243     -0.2457
    103  OE2       54.9460   -2.0340  109.8150 O.co2 243  GLU243     -0.2457
@<TRIPOS>BOND
     1    30    28    1
     2    24    25    1
     3    28    25    1
     4    28    29    1
     5    25    26    1
     6    21    20    2
     7    62    61    2
     8    20    19    1
     9    26    27    2
    10    26    31   am
    11     1     2    1
    12    61    60    1
    13    31    32    1
    14    60    63    1
    15    60    59    1
    16    19    22    1
    17    19    18    1
    18    14    13    2
    19    22    23    1
    20    64    63    1
    21     2     3    1
    22     2     5    1
    23    10     9    2
    24    13    18   am
    25    13    12    1
    26    32    35    1
    27    32    33    1
    28     3     4    2
    29     3     7   am
    30    35    36    1
    31     6     5    1
    32     7     8    1
    33     9     8    1
    34     9    11   am
    35    34    33    2
    36    33    37   am
    37    12    11    1
    38    12    15    1
    39    17    15    1
    40    37    38    1
    41    55    54    2
    42    15    16    1
    43    38    39    1
    44    38    41    1
    45    85    83    1
    46    56    58    1
    47    56    57    1
    48    56    53    1
    49    54    53    1
    50    82    83    1
    51    82    79    1
    52    78    79    1
    53    39    40    2
    54    39    46   am
    55    41    42    1
    56    53    52    1
    57    83    84    1
    58    79    80    1
    59    46    47    1
    60    48    49    2
    61    48    47    1
    62    77    76    1
    63    42    43    1
    64    47    50    1
    65    51    50    1
    66    76    73    1
    67    94    93    1
    68    86    80   am
    69    86    87    1
    70    75    74    2
    71    80    81    2
    72    91    90    1
    73    91    92    1
    74    74    73    1
    75    43    44    2
    76    43    45   am
    77    93    92    1
    78    90    87    1
    79    73    72    1
    80    87    88    1
    81   103   101   ar
    82   102   101   ar
    83    88    89    2
    84   101   100    1
    85    99   100    1
    86    99    96    1
    87    95    96    1
    88    96    97    1
    89    68    67    2
    90    67    66    1
    91    97    98    2
    92    66    65    1
    93    66    69    1
    94    69    71    1
    95    69    70    1
