@<TRIPOS>MOLECULE
tmp/2puzB00.pdb
 139 132 0 0 0
SMALL
GASTEIGER

@<TRIPOS>ATOM
      1  N         24.0270    9.9880    7.1530 N.3    72  HIS72      -0.1241
      2  CA        24.9730    9.2810    6.2990 C.3    72  HIS72       0.1621
      3  C         25.4340    8.1460    7.2080 C.2    72  HIS72       0.2264
      4  O         26.6120    7.7950    7.2480 O.2    72  HIS72      -0.2867
      5  CB        26.1720   10.1690    5.9600 C.3    72  HIS72       0.0745
      6  CG        25.8250   11.4060    5.1890 C.ar   72  HIS72       0.0817
      7  ND1       26.0960   11.5460    3.8450 N.ar   72  HIS72      -0.2268
      8  CD2       25.2660   12.5760    5.5830 C.ar   72  HIS72       0.1154
      9  CE1       25.7220   12.7490    3.4450 C.ar   72  HIS72       0.1986
     10  NE2       25.2160   13.3940    4.4810 N.ar   72  HIS72      -0.2212
     11  N         36.6510    8.7860   11.2280 N.3    79  ARG79      -0.1245
     12  CA        37.5680    9.8570   10.8750 C.3    79  ARG79       0.1563
     13  C         38.2320   10.4910   12.0990 C.2    79  ARG79       0.2260
     14  O         38.5260   11.6860   12.1180 O.2    79  ARG79      -0.2867
     15  CB        36.8100   10.9100   10.0600 C.3    79  ARG79       0.0307
     16  CG        36.0960   10.3160    8.8410 C.3    79  ARG79       0.0489
     17  CD        37.0180   10.2460    7.6290 C.3    79  ARG79       0.2205
     18  NE        37.2860   11.5850    7.1090 N.pl3  79  ARG79      -0.0865
     19  CZ        36.3980   12.3270    6.4540 C.cat  79  ARG79       0.5346
     20  NH1       35.1760   11.8660    6.2210 N.pl3  79  ARG79       0.1354
     21  NH2       36.7230   13.5410    6.0490 N.pl3  79  ARG79       0.1354
     22  N         37.4620   13.4570    2.8230 N.3   102  ILE102     -0.1245
     23  CA        36.3580   12.5960    2.4430 C.3   102  ILE102      0.1561
     24  C         36.8340   11.3190    1.7500 C.2   102  ILE102      0.2260
     25  O         36.1580   10.2920    1.8010 O.2   102  ILE102     -0.2867
     26  CB        35.3490   13.3420    1.5450 C.3   102  ILE102      0.0252
     27  CG1       34.0980   12.4810    1.3630 C.3   102  ILE102      0.0019
     28  CG2       35.9760   13.6620    0.2000 C.3   102  ILE102      0.0019
     29  CD1       32.9240   13.2180    0.7500 C.3   102  ILE102      0.0001
     30  N         29.3740    7.6840   -0.3490 N.3   142  TYR142     -0.1241
     31  CA        30.7340    7.3860    0.1060 C.3   142  TYR142      0.1605
     32  C         31.2820    6.2620   -0.7630 C.2   142  TYR142      0.2264
     33  O         32.1130    5.4610   -0.3250 O.2   142  TYR142     -0.2867
     34  CB        30.7730    6.9680    1.5860 C.3   142  TYR142      0.0534
     35  CG        30.5450    8.1090    2.5600 C.ar  142  TYR142     -0.0201
     36  CD1       31.2030    9.3300    2.4020 C.ar  142  TYR142     -0.0009
     37  CD2       29.6590    7.9740    3.6220 C.ar  142  TYR142     -0.0009
     38  CE1       30.9710   10.3920    3.2780 C.ar  142  TYR142      0.0417
     39  CE2       29.4220    9.0230    4.5040 C.ar  142  TYR142      0.0417
     40  CZ        30.0740   10.2270    4.3270 C.ar  142  TYR142      0.1957
     41  OH        29.8000   11.2790    5.1810 O.3   142  TYR142     -0.2866
     42  N         27.9360   13.5840   -4.6090 N.3   175  HIS175     -0.1226
     43  CA        28.3870   14.0750   -3.3100 C.3   175  HIS175      0.1752
     44  C         29.7520   14.7360   -3.4450 C.2   175  HIS175      0.2595
     45  O         30.0210   15.7800   -2.8490 O.2   175  HIS175     -0.2718
     46  CB        28.5020   12.9130   -2.3300 C.3   175  HIS175      0.0759
     47  CG        28.5320   13.3300   -0.8920 C.ar  175  HIS175      0.0818
     48  ND1       28.9280   12.4800    0.1180 N.ar  175  HIS175     -0.2268
     49  CD2       28.1550   14.4820   -0.2890 C.ar  175  HIS175      0.1154
     50  CE1       28.7900   13.0890    1.2820 C.ar  175  HIS175      0.1986
     51  NE2       28.3210   14.3040    1.0640 N.ar  175  HIS175     -0.2212
     52  N         30.6140   14.1010   -4.2320 N.am  176  ALA176     -0.1980
     53  CA        31.9620   14.5870   -4.4690 C.3   176  ALA176      0.1597
     54  C         32.4760   13.9250   -5.7350 C.2   176  ALA176      0.2287
     55  O         31.8670   12.9850   -6.2460 O.2   176  ALA176     -0.2864
     56  CB        32.8630   14.2310   -3.2900 C.3   176  ALA176      0.0319
     57  N         25.0560   17.4640   -3.5650 N.3   212  PHE212     -0.1241
     58  CA        25.8390   18.4240   -2.7990 C.3   212  PHE212      0.1605
     59  C         26.1760   19.6060   -3.7000 C.2   212  PHE212      0.2264
     60  O         27.1150   19.5550   -4.4950 O.2   212  PHE212     -0.2867
     61  CB        27.1150   17.7540   -2.2670 C.3   212  PHE212      0.0534
     62  CG        27.8250   18.5450   -1.1990 C.ar  212  PHE212     -0.0203
     63  CD1       27.1370   19.4630   -0.4170 C.ar  212  PHE212     -0.0042
     64  CD2       29.1830   18.3530   -0.9640 C.ar  212  PHE212     -0.0042
     65  CE1       27.7920   20.1850    0.5880 C.ar  212  PHE212     -0.0003
     66  CE2       29.8470   19.0650    0.0340 C.ar  212  PHE212     -0.0003
     67  CZ        29.1530   19.9840    0.8120 C.ar  212  PHE212     -0.0000
     68  N         32.7380   23.5460   -3.2820 N.3   216  ILE216     -0.1245
     69  CA        33.7070   22.4630   -3.1370 C.3   216  ILE216      0.1561
     70  C         33.1570   21.1720   -3.7170 C.2   216  ILE216      0.2260
     71  O         33.8000   20.1300   -3.6340 O.2   216  ILE216     -0.2867
     72  CB        34.0320   22.1490   -1.6560 C.3   216  ILE216      0.0252
     73  CG1       32.7820   21.5990   -0.9600 C.3   216  ILE216      0.0019
     74  CG2       34.5070   23.3870   -0.9410 C.3   216  ILE216      0.0019
     75  CD1       33.0930   20.7670    0.2560 C.3   216  ILE216      0.0001
     76  N         21.8390   19.2160   -0.3770 N.3   240  HIS240     -0.1241
     77  CA        22.6830   19.8360    0.6410 C.3   240  HIS240      0.1621
     78  C         22.9150   21.2140    0.0090 C.2   240  HIS240      0.2264
     79  O         23.6680   21.3350   -0.9570 O.2   240  HIS240     -0.2867
     80  CB        24.0290   19.1150    0.7620 C.3   240  HIS240      0.0745
     81  CG        23.9620   17.7950    1.4680 C.ar  240  HIS240      0.0817
     82  ND1       23.2490   16.7200    0.9830 N.ar  240  HIS240     -0.2268
     83  CD2       24.5440   17.3730    2.6160 C.ar  240  HIS240      0.1154
     84  CE1       23.3950   15.6930    1.8000 C.ar  240  HIS240      0.1986
     85  NE2       24.1770   16.0620    2.7980 N.ar  240  HIS240     -0.2212
     86  N         25.4060   25.3920    2.3980 N.3   243  GLN243     -0.1231
     87  CA        26.0860   25.0750    3.6530 C.3   243  GLN243      0.1698
     88  C         27.3260   25.9410    3.8840 C.2   243  GLN243      0.2592
     89  O         27.4970   26.5130    4.9650 O.2   243  GLN243     -0.2718
     90  CB        26.5040   23.6000    3.7070 C.3   243  GLN243      0.0381
     91  CG        27.3560   23.2790    4.9540 C.3   243  GLN243      0.0905
     92  CD        28.0670   21.9370    4.8800 C.2   243  GLN243      0.2608
     93  OE1       28.3610   21.4370    3.7970 O.2   243  GLN243     -0.2717
     94  NE2       28.3660   21.3580    6.0430 N.am  243  GLN243     -0.0878
     95  N         28.1770   26.0500    2.8650 N.am  244  LEU244     -0.1980
     96  CA        29.4180   26.8110    2.9930 C.3   244  LEU244      0.1596
     97  C         29.5060   28.1210    2.1980 C.2   244  LEU244      0.2287
     98  O         30.5050   28.8380    2.2850 O.2   244  LEU244     -0.2864
     99  CB        30.5970   25.9030    2.6330 C.3   244  LEU244      0.0297
    100  CG        30.6230   24.5580    3.3740 C.3   244  LEU244      0.0022
    101  CD1       31.7470   23.6730    2.8270 C.3   244  LEU244      0.0001
    102  CD2       30.8120   24.7900    4.8700 C.3   244  LEU244      0.0001
    103  N         20.9910   22.1100    5.4740 N.3   263  HIS263     -0.1241
    104  CA        22.1270   22.9070    5.9670 C.3   263  HIS263      0.1621
    105  C         21.6900   24.3690    5.9520 C.2   263  HIS263      0.2264
    106  O         21.3300   24.9210    6.9850 O.2   263  HIS263     -0.2867
    107  CB        23.3860   22.6940    5.1130 C.3   263  HIS263      0.0745
    108  CG        24.1430   21.4500    5.4610 C.ar  263  HIS263      0.0817
    109  ND1       24.7060   21.2450    6.7030 N.ar  263  HIS263     -0.2268
    110  CD2       24.4230   20.3420    4.7340 C.ar  263  HIS263      0.1154
    111  CE1       25.3000   20.0660    6.7270 C.ar  263  HIS263      0.1986
    112  NE2       25.1430   19.4960    5.5450 N.ar  263  HIS263     -0.2212
    113  N         22.5030   14.5150   10.7560 N.3   315  ASP315     -0.1239
    114  CA        23.4840   14.5500    9.6760 C.3   315  ASP315      0.1674
    115  C         24.6080   13.5990   10.0720 C.2   315  ASP315      0.2266
    116  O         25.7670   13.7810    9.7000 O.2   315  ASP315     -0.2867
    117  CB        24.0390   15.9620    9.4600 C.3   315  ASP315      0.1410
    118  CG        24.9500   16.0520    8.2330 C.2   315  ASP315      0.3668
    119  OD1       24.7760   15.2490    7.2960 O.co2 315  ASP315     -0.2456
    120  OD2       25.8280   16.9350    8.1960 O.co2 315  ASP315     -0.2456
    121  N         27.3710   11.4720   10.2560 N.3   317  ASN317     -0.1240
    122  CA        28.3490   11.0760    9.2540 C.3   317  ASN317      0.1653
    123  C         29.7330   11.0380    9.9020 C.2   317  ASN317      0.2266
    124  O         29.9270   11.5400   11.0090 O.2   317  ASN317     -0.2867
    125  CB        28.3020   12.0250    8.0440 C.3   317  ASN317      0.1155
    126  CG        28.8950   13.3810    8.3320 C.2   317  ASN317      0.2627
    127  OD1       30.1030   13.5110    8.5260 O.2   317  ASN317     -0.2716
    128  ND2       28.0510   14.4060    8.3520 N.am  317  ASN317     -0.0877
    129  N         32.8020   12.4960    8.8390 N.3   319  GLY319     -0.1210
    130  CA        33.7150   13.6250    8.7610 C.3   319  GLY319      0.1956
    131  C         33.3180   15.0240    9.1870 C.2   319  GLY319      0.2612
    132  O         34.1950   15.8400    9.4920 O.2   319  GLY319     -0.2717
    133  N         32.0280   15.3320    9.2090 N.am  320  THR320     -0.1952
    134  CA        31.6250   16.6770    9.5960 C.3   320  THR320      0.1897
    135  C         30.6010   16.7240   10.7170 C.2   320  THR320      0.2313
    136  O         30.3270   17.7900   11.2520 O.2   320  THR320     -0.2863
    137  CB        31.0620   17.4540    8.3870 C.3   320  THR320      0.1794
    138  OG1       29.8650   16.8180    7.9240 O.3   320  THR320     -0.2208
    139  CG2       32.0750   17.4780    7.2540 C.3   320  THR320      0.0378
@<TRIPOS>BOND
     1    55    54    2
     2    54    53    1
     3    42    43    1
     4    60    59    2
     5    53    52    1
     6    53    56    1
     7    52    44   am
     8    70    71    2
     9    70    69    1
    10    59    58    1
    11    57    58    1
    12    44    43    1
    13    44    45    2
    14    43    46    1
    15    68    69    1
    16    69    72    1
    17    58    61    1
    18    46    47    1
    19    61    62    1
    20    72    73    1
    21    72    74    1
    22    62    64   ar
    23    62    63   ar
    24    64    66   ar
    25    73    75    1
    26    79    78    2
    27    47    49   ar
    28    47    48   ar
    29    32    33    2
    30    32    31    1
    31    63    65   ar
    32    76    77    1
    33    30    31    1
    34    49    51   ar
    35    78    77    1
    36    66    67   ar
    37    31    34    1
    38    48    50   ar
    39    28    26    1
    40    65    67   ar
    41    77    80    1
    42    29    27    1
    43    80    81    1
    44    82    81   ar
    45    82    84   ar
    46    51    50   ar
    47    27    26    1
    48    81    83   ar
    49    26    23    1
    50    34    35    1
    51    24    25    2
    52    24    23    1
    53    84    85   ar
    54    97    98    2
    55    97    96    1
    56    86    87    1
    57    36    35   ar
    58    36    38   ar
    59    23    22    1
    60    35    37   ar
    61    83    85   ar
    62    99    96    1
    63    99   100    1
    64   101   100    1
    65    95    96    1
    66    95    88   am
    67    38    40   ar
    68   100   102    1
    69     9     7   ar
    70     9    10   ar
    71    37    39   ar
    72    87    90    1
    73    87    88    1
    74    90    91    1
    75    93    92    2
    76     7     6   ar
    77    88    89    2
    78    40    39   ar
    79    40    41    1
    80    10     8   ar
    81   110   108   ar
    82   110   112   ar
    83    92    91    1
    84    92    94   am
    85   107   108    1
    86   107   104    1
    87     6     8   ar
    88     6     5    1
    89   108   109   ar
    90   103   104    1
    91   112   111   ar
    92   105   104    1
    93   105   106    2
    94     5     2    1
    95    21    19    1
    96    20    19    1
    97     2     1    1
    98     2     3    1
    99    19    18    2
   100   109   111   ar
   101    18    17    1
   102     3     4    2
   103   139   137    1
   104   119   118   ar
   105    17    16    1
   106   138   137    1
   107   125   126    1
   108   125   122    1
   109   120   118   ar
   110   118   117    1
   111   126   128   am
   112   126   127    2
   113   137   134    1
   114   130   129    1
   115   130   131    1
   116    16    15    1
   117   131   133   am
   118   131   132    2
   119   133   134    1
   120   122   123    1
   121   122   121    1
   122   117   114    1
   123   134   135    1
   124   114   115    1
   125   114   113    1
   126   116   115    2
   127   123   124    2
   128    15    12    1
   129   135   136    2
   130    12    11    1
   131    12    13    1
   132    13    14    2
