@<TRIPOS>MOLECULE
tmp/2pv1A00.pdb
 192 188 0 0 0
SMALL
GASTEIGER

@<TRIPOS>ATOM
      1  N         24.0410  -15.5130  -15.3080 N.3     3  LEU3       -0.1245
      2  CA        23.2950  -14.2650  -15.1760 C.3     3  LEU3        0.1561
      3  C         23.1640  -13.9230  -13.7070 C.2     3  LEU3        0.2260
      4  O         23.1790  -14.8020  -12.8400 O.2     3  LEU3       -0.2867
      5  CB        21.8810  -14.3930  -15.7560 C.3     3  LEU3        0.0270
      6  CG        21.6900  -14.2110  -17.2590 C.3     3  LEU3        0.0019
      7  CD1       22.4990  -15.2380  -18.0170 C.3     3  LEU3        0.0001
      8  CD2       20.2160  -14.2990  -17.6000 C.3     3  LEU3        0.0001
      9  N         20.5070  -12.0970  -11.2910 N.3     5  LEU5       -0.1245
     10  CA        19.0990  -11.6860  -11.3000 C.3     5  LEU5        0.1561
     11  C         18.5540  -11.2140   -9.9850 C.2     5  LEU5        0.2260
     12  O         19.0970  -11.5270   -8.9170 O.2     5  LEU5       -0.2867
     13  CB        18.2100  -12.8690  -11.6920 C.3     5  LEU5        0.0270
     14  CG        18.5040  -13.5950  -12.9920 C.3     5  LEU5        0.0019
     15  CD1       17.5740  -14.8050  -13.1000 C.3     5  LEU5        0.0001
     16  CD2       18.3110  -12.6460  -14.1640 C.3     5  LEU5        0.0001
     17  N         14.4140  -10.5880   -8.2320 N.3     7  HIS7       -0.1241
     18  CA        13.0350  -11.0410   -8.3590 C.3     7  HIS7        0.1621
     19  C         12.0560  -10.2670   -7.5000 C.2     7  HIS7        0.2264
     20  O         12.4160   -9.7700   -6.4360 O.2     7  HIS7       -0.2867
     21  CB        13.0310  -12.5350   -7.9390 C.3     7  HIS7        0.0745
     22  CG        11.6780  -13.1710   -7.8330 C.ar    7  HIS7        0.0817
     23  ND1       11.0130  -13.3050   -6.6260 N.ar    7  HIS7       -0.2268
     24  CD2       10.8950  -13.7730   -8.7600 C.ar    7  HIS7        0.1154
     25  CE1        9.8830  -13.9560   -6.8280 C.ar    7  HIS7        0.1986
     26  NE2        9.7840  -14.2520   -8.1110 N.ar    7  HIS7       -0.2212
     27  N          7.8030  -10.7010   -6.3510 N.3     9  LEU9       -0.1245
     28  CA         6.5860  -11.4960   -6.3900 C.3     9  LEU9        0.1561
     29  C          5.4040  -10.6520   -5.9690 C.2     9  LEU9        0.2260
     30  O          5.4570  -10.0010   -4.9230 O.2     9  LEU9       -0.2867
     31  CB         6.6400  -12.6810   -5.4160 C.3     9  LEU9        0.0270
     32  CG         5.3020  -13.4410   -5.2590 C.3     9  LEU9        0.0019
     33  CD1        4.9480  -14.1630   -6.5640 C.3     9  LEU9        0.0001
     34  CD2        5.3990  -14.4560   -4.0820 C.3     9  LEU9        0.0001
     35  N          8.0050  -11.7910   -1.6830 N.3    51  ASP51      -0.1225
     36  CA         8.9080  -12.8890   -1.4430 C.3    51  ASP51       0.1805
     37  C          9.8100  -12.6420   -0.2260 C.2    51  ASP51       0.2598
     38  O          9.9940  -11.5140    0.2260 O.2    51  ASP51      -0.2718
     39  CB         9.7260  -13.1650   -2.7060 C.3    51  ASP51       0.1424
     40  CG        10.6200  -14.3360   -2.5350 C.2    51  ASP51       0.3668
     41  OD1       11.7770  -14.1260   -2.1010 O.co2  51  ASP51      -0.2456
     42  OD2       10.1510  -15.4610   -2.7990 O.co2  51  ASP51      -0.2456
     43  N         10.3920  -13.7170    0.2970 N.am   52  GLN52      -0.1965
     44  CA        11.2550  -13.6080    1.4750 C.3    52  GLN52       0.1733
     45  C         12.5060  -12.7450    1.3120 C.2    52  GLN52       0.2616
     46  O         13.0870  -12.3160    2.3070 O.2    52  GLN52      -0.2715
     47  CB        11.6640  -15.0050    1.9750 C.3    52  GLN52       0.0408
     48  CG        12.6090  -15.7790    1.0760 C.3    52  GLN52       0.0908
     49  CD        12.8600  -17.1920    1.5920 C.2    52  GLN52       0.2608
     50  OE1       13.2280  -17.3860    2.7510 O.2    52  GLN52      -0.2717
     51  NE2       12.6600  -18.1840    0.7290 N.am   52  GLN52      -0.0878
     52  N         12.9400  -12.4850    0.0790 N.am   53  GLN53      -0.1977
     53  CA        14.1300  -11.6660   -0.1040 C.3    53  GLN53       0.1601
     54  C         13.8100  -10.2210   -0.4870 C.2    53  GLN53       0.2287
     55  O         14.7020   -9.4670   -0.8580 O.2    53  GLN53      -0.2864
     56  CB        15.0590  -12.3050   -1.1460 C.3    53  GLN53       0.0394
     57  CG        15.8130  -13.5310   -0.6290 C.3    53  GLN53       0.0908
     58  CD        16.6500  -13.2460    0.6100 C.2    53  GLN53       0.2608
     59  OE1       17.4610  -12.3220    0.6280 O.2    53  GLN53      -0.2717
     60  NE2       16.4630  -14.0550    1.6470 N.am   53  GLN53      -0.0878
     61  N         15.2930   -8.4810   -3.5140 N.3    58  GLY58      -0.1210
     62  CA        15.0130   -9.6570   -4.3220 C.3    58  GLY58       0.1956
     63  C         16.2420  -10.2440   -5.0120 C.2    58  GLY58       0.2612
     64  O         16.1070  -10.9800   -5.9990 O.2    58  GLY58      -0.2717
     65  N         17.4300   -9.9470   -4.4980 N.am   59  GLN59      -0.1965
     66  CA        18.6720  -10.4480   -5.1070 C.3    59  GLN59       0.1733
     67  C         18.7620  -11.9650   -5.1140 C.2    59  GLN59       0.2616
     68  O         18.4950  -12.6250   -4.0940 O.2    59  GLN59      -0.2715
     69  CB        19.8990   -9.8770   -4.3790 C.3    59  GLN59       0.0408
     70  CG        20.0870   -8.3750   -4.5730 C.3    59  GLN59       0.0908
     71  CD        21.2610   -7.8380   -3.7890 C.2    59  GLN59       0.2608
     72  OE1       22.4150   -8.1380   -4.1020 O.2    59  GLN59      -0.2717
     73  NE2       20.9790   -7.0570   -2.7510 N.am   59  GLN59      -0.0878
     74  N         19.1260  -12.5290   -6.2650 N.am   60  MET60      -0.1963
     75  CA        19.2840  -13.9770   -6.4270 C.3    60  MET60       0.1736
     76  C         20.7480  -14.3730   -6.6160 C.2    60  MET60       0.2617
     77  O         21.0820  -15.5660   -6.5820 O.2    60  MET60      -0.2715
     78  CB        18.4710  -14.4500   -7.6370 C.3    60  MET60       0.0427
     79  CG        16.9620  -14.3810   -7.4120 C.3    60  MET60       0.0599
     80  SD        16.0030  -14.5830   -8.8990 S.3    60  MET60      -0.1393
     81  CE        16.5700  -16.2010   -9.4070 C.3    60  MET60       0.0692
     82  N         21.5990  -13.3850   -6.8420 N.am   61  GLY61      -0.1940
     83  CA        23.0010  -13.6900   -7.0900 C.3    61  GLY61       0.2014
     84  C         23.2310  -14.1570   -8.5190 C.2    61  GLY61       0.2639
     85  O         22.4290  -13.8840   -9.4380 O.2    61  GLY61      -0.2714
     86  N         24.3350  -14.8750   -8.7080 N.am   62  TRP62      -0.1959
     87  CA        24.7530  -15.4020  -10.0090 C.3    62  TRP62       0.1771
     88  C         24.3850  -16.8650  -10.1940 C.2    62  TRP62       0.2620
     89  O         24.4500  -17.6540   -9.2460 O.2    62  TRP62      -0.2715
     90  CB        26.2790  -15.3070  -10.1520 C.3    62  TRP62       0.0590
     91  CG        26.8050  -13.9340  -10.2960 C.ar   62  TRP62       0.0006
     92  CD1       27.3630  -13.1440   -9.3150 C.ar   62  TRP62       0.0946
     93  CD2       26.8980  -13.1870  -11.5090 C.ar   62  TRP62       0.0152
     94  NE1       27.8010  -11.9610   -9.8540 N.ar   62  TRP62      -0.2442
     95  CE2       27.5280  -11.9580  -11.2020 C.ar   62  TRP62       0.0810
     96  CE3       26.5090  -13.4360  -12.8270 C.ar   62  TRP62       0.0012
     97  CZ2       27.7790  -10.9780  -12.1700 C.ar   62  TRP62       0.0191
     98  CZ3       26.7620  -12.4630  -13.7920 C.ar   62  TRP62       0.0001
     99  CH2       27.3920  -11.2500  -13.4580 C.ar   62  TRP62       0.0015
    100  N         24.0030  -17.2460  -11.4020 N.am   63  GLY63      -0.1940
    101  CA        23.6980  -18.6390  -11.5960 C.3    63  GLY63       0.2014
    102  C         23.4560  -19.0430  -13.0240 C.2    63  GLY63       0.2639
    103  O         23.5330  -18.2460  -13.9710 O.2    63  GLY63      -0.2714
    104  N         23.1750  -20.3290  -13.1810 N.am   64  ARG64      -0.1963
    105  CA        22.8930  -20.8900  -14.4830 C.3    64  ARG64       0.1729
    106  C         21.4050  -20.8770  -14.7350 C.2    64  ARG64       0.2616
    107  O         20.6120  -21.3750  -13.9450 O.2    64  ARG64      -0.2715
    108  CB        23.4330  -22.3130  -14.5750 C.3    64  ARG64       0.0348
    109  CG        24.9490  -22.3810  -14.5330 C.3    64  ARG64       0.0492
    110  CD        25.4480  -23.8210  -14.6450 C.3    64  ARG64       0.2205
    111  NE        25.2310  -24.5730  -13.4120 N.pl3  64  ARG64      -0.0865
    112  CZ        25.6790  -25.8090  -13.1950 C.cat  64  ARG64       0.5346
    113  NH1       26.3760  -26.4420  -14.1320 N.pl3  64  ARG64       0.1354
    114  NH2       25.4320  -26.4110  -12.0370 N.pl3  64  ARG64       0.1354
    115  N         21.0420  -20.2950  -15.8600 N.am   65  ILE65      -0.1977
    116  CA        19.6590  -20.1590  -16.2680 C.3    65  ILE65       0.1596
    117  C         18.7910  -21.4230  -16.1930 C.2    65  ILE65       0.2287
    118  O         17.6810  -21.3800  -15.6680 O.2    65  ILE65      -0.2864
    119  CB        19.6320  -19.5660  -17.7010 C.3    65  ILE65       0.0276
    120  CG1       18.2180  -19.1920  -18.1010 C.3    65  ILE65       0.0022
    121  CG2       20.2120  -20.5630  -18.6940 C.3    65  ILE65       0.0022
    122  CD1       18.1740  -18.3950  -19.3900 C.3    65  ILE65       0.0001
    123  N         18.9250  -23.9270  -14.3170 N.3    67  GLU67      -0.1231
    124  CA        18.6110  -24.4630  -13.0080 C.3    67  GLU67       0.1699
    125  C         17.3870  -23.7760  -12.4130 C.2    67  GLU67       0.2592
    126  O         16.7990  -24.2580  -11.4450 O.2    67  GLU67      -0.2718
    127  CB        19.8220  -24.3670  -12.0730 C.3    67  GLU67       0.0402
    128  CG        20.9610  -25.2890  -12.5660 C.3    67  GLU67       0.1161
    129  CD        22.1250  -25.4130  -11.6090 C.2    67  GLU67       0.3649
    130  OE1       22.3270  -24.5130  -10.7740 O.co2  67  GLU67      -0.2457
    131  OE2       22.8580  -26.4270  -11.7160 O.co2  67  GLU67      -0.2457
    132  N         17.0020  -22.6460  -12.9890 N.am   68  LEU68      -0.1966
    133  CA        15.8090  -21.9460  -12.5000 C.3    68  LEU68       0.1713
    134  C         14.5600  -22.6100  -13.0590 C.2    68  LEU68       0.2458
    135  O         14.6300  -23.3710  -14.0150 O.2    68  LEU68      -0.2730
    136  CB        15.7820  -20.5000  -13.0220 C.3    68  LEU68       0.0310
    137  CG        16.9340  -19.5750  -12.6670 C.3    68  LEU68       0.0022
    138  CD1       16.8090  -18.2650  -13.4630 C.3    68  LEU68       0.0001
    139  CD2       16.9140  -19.2900  -11.1470 C.3    68  LEU68       0.0001
    140  N         13.3960  -22.3380  -12.4560 N.am   69  PRO69      -0.2727
    141  CA        12.1390  -22.9060  -12.9560 C.3    69  PRO69       0.1402
    142  C         12.0410  -22.6170  -14.4620 C.2    69  PRO69       0.2269
    143  O         12.4530  -21.5440  -14.9300 O.2    69  PRO69      -0.2865
    144  CB        11.0810  -22.1260  -12.1860 C.3    69  PRO69       0.0296
    145  CG        11.7470  -21.9270  -10.8360 C.3    69  PRO69       0.0237
    146  CD        13.2220  -21.6760  -11.1490 C.3    69  PRO69       0.0939
    147  N          9.6350  -21.7300  -16.2820 N.3    71  ILE71      -0.1231
    148  CA         8.9060  -20.4950  -16.6100 C.3    71  ILE71       0.1692
    149  C          9.8140  -19.2750  -16.5540 C.2    71  ILE71       0.2592
    150  O          9.5480  -18.2700  -17.2300 O.2    71  ILE71      -0.2718
    151  CB         7.6650  -20.2670  -15.7080 C.3    71  ILE71       0.0266
    152  CG1        8.0570  -20.2360  -14.2330 C.3    71  ILE71       0.0019
    153  CG2        6.6000  -21.3130  -16.0040 C.3    71  ILE71       0.0020
    154  CD1        6.8800  -19.9230  -13.3010 C.3    71  ILE71       0.0001
    155  N         10.8710  -19.3300  -15.7480 N.am   72  PHE72      -0.1976
    156  CA        11.8510  -18.2450  -15.7040 C.3    72  PHE72       0.1639
    157  C         12.8890  -18.4190  -16.8190 C.2    72  PHE72       0.2290
    158  O         13.1570  -17.4830  -17.5860 O.2    72  PHE72      -0.2864
    159  CB        12.6310  -18.1950  -14.4020 C.3    72  PHE72       0.0560
    160  CG        11.8230  -17.8160  -13.1910 C.ar   72  PHE72      -0.0200
    161  CD1       10.4630  -17.4660  -13.2650 C.ar   72  PHE72      -0.0042
    162  CD2       12.4440  -17.7990  -11.9620 C.ar   72  PHE72      -0.0042
    163  CE1        9.7570  -17.1070  -12.0970 C.ar   72  PHE72      -0.0003
    164  CE2       11.7480  -17.4450  -10.7960 C.ar   72  PHE72      -0.0003
    165  CZ        10.4000  -17.0980  -10.8780 C.ar   72  PHE72      -0.0000
    166  N          2.5230  -18.0610  -11.9720 N.3    90  SER90      -0.1202
    167  CA         2.6880  -19.4240  -11.4770 C.3    90  SER90       0.2020
    168  C          1.6610  -19.5400  -10.3620 C.2    90  SER90       0.2619
    169  O          0.9350  -18.5930  -10.0570 O.2    90  SER90      -0.2717
    170  CB         4.0980  -19.7120  -10.9410 C.3    90  SER90       0.2103
    171  OG         4.2970  -19.2580   -9.6150 O.3    90  SER90      -0.2182
    172  N          1.6090  -20.7070   -9.7370 N.am   91  GLY91      -0.1942
    173  CA         0.6490  -20.9220   -8.6710 C.3    91  GLY91       0.2014
    174  C          0.7170  -19.9340   -7.5210 C.2    91  GLY91       0.2638
    175  O         -0.2830  -19.6960   -6.8560 O.2    91  GLY91      -0.2714
    176  N          1.8760  -19.3460   -7.2670 N.am   92  VAL92      -0.1977
    177  CA         1.9830  -18.4080   -6.1620 C.3    92  VAL92       0.1596
    178  C          1.7520  -16.9320   -6.5130 C.2    92  VAL92       0.2287
    179  O          1.7620  -16.0740   -5.6320 O.2    92  VAL92      -0.2864
    180  CB         3.3400  -18.5490   -5.4730 C.3    92  VAL92       0.0276
    181  CG1        3.5160  -19.9910   -4.9640 C.3    92  VAL92       0.0022
    182  CG2        4.4530  -18.1740   -6.4500 C.3    92  VAL92       0.0022
    183  N          5.3930  -13.1040  -11.1170 N.3    95  HIS95      -0.1241
    184  CA         6.8230  -12.9320  -10.9190 C.3    95  HIS95       0.1621
    185  C          7.3790  -11.9210  -11.9050 C.2    95  HIS95       0.2264
    186  O          6.9180  -11.8640  -13.0590 O.2    95  HIS95      -0.2867
    187  CB         7.5410  -14.2680  -11.1670 C.3    95  HIS95       0.0745
    188  CG         7.0480  -15.4030  -10.3330 C.ar   95  HIS95       0.0817
    189  ND1        7.6040  -15.7170   -9.1130 N.ar   95  HIS95      -0.2268
    190  CD2        6.0630  -16.3060  -10.5550 C.ar   95  HIS95       0.1154
    191  CE1        6.9700  -16.7700   -8.6180 C.ar   95  HIS95       0.1986
    192  NE2        6.0340  -17.1460   -9.4690 N.ar   95  HIS95      -0.2212
@<TRIPOS>BOND
     1   122   120    1
     2   121   119    1
     3   120   119    1
     4     7     6    1
     5   119   116    1
     6     8     6    1
     7   158   157    2
     8     6     5    1
     9   150   149    2
    10   157   156    1
    11   148   149    1
    12   148   147    1
    13   148   151    1
    14   149   155   am
    15   116   117    1
    16   116   115    1
    17   117   118    2
    18   153   151    1
    19   115   106   am
    20     5     2    1
    21   155   156    1
    22   151   152    1
    23   156   159    1
    24     1     2    1
    25     2     3    1
    26   143   142    2
    27   106   105    1
    28   106   107    2
    29   110   109    1
    30   110   111    1
    31   108   109    1
    32   108   105    1
    33   105   104    1
    34   142   141    1
    35   159   160    1
    36   123   124    1
    37   152   154    1
    38    16    14    1
    39   113   112    1
    40   135   134    2
    41   103   102    2
    42    98    99   ar
    43    98    96   ar
    44     3     4    2
    45   138   137    1
    46    99    97   ar
    47   111   112    2
    48   161   160   ar
    49   161   163   ar
    50   112   114    1
    51   160   162   ar
    52   104   102   am
    53    15    14    1
    54   186   185    2
    55   134   133    1
    56   134   140   am
    57   102   101    1
    58   136   137    1
    59   136   133    1
    60   124   125    1
    61   124   127    1
    62    14    13    1
    63   132   133    1
    64   132   125   am
    65   141   140    1
    66   141   144    1
    67    96    93   ar
    68   137   139    1
    69   128   127    1
    70   128   129    1
    71   140   146    1
    72   125   126    2
    73   144   145    1
    74    97    95   ar
    75   163   165   ar
    76   166   167    1
    77   162   164   ar
    78   185   184    1
    79   131   129   ar
    80    13    10    1
    81   129   130   ar
    82   101   100    1
    83    93    95   ar
    84    93    91   ar
    85   167   170    1
    86   167   168    1
    87   100    88   am
    88    10     9    1
    89    10    11    1
    90    95    94   ar
    91   187   184    1
    92   187   188    1
    93   146   145    1
    94   183   184    1
    95   170   171    1
    96   165   164   ar
    97   190   188   ar
    98   190   192   ar
    99   168   169    2
   100   168   172   am
   101   188   189   ar
   102    91    90    1
   103    91    92   ar
   104    88    87    1
   105    88    89    2
   106    90    87    1
   107    87    86    1
   108    11    12    2
   109    94    92   ar
   110   172   173    1
   111   192   191   ar
   112    85    84    2
   113    81    80    1
   114   189   191   ar
   115    80    79    1
   116    24    26   ar
   117    24    22   ar
   118    86    84   am
   119   173   174    1
   120    84    83    1
   121    18    17    1
   122    18    21    1
   123    18    19    1
   124    26    25   ar
   125    21    22    1
   126    22    23   ar
   127    78    79    1
   128    78    75    1
   129   174   176   am
   130   174   175    2
   131    19    20    2
   132   176   177    1
   133    83    82    1
   134    82    76   am
   135    25    23   ar
   136    76    77    2
   137    76    75    1
   138    33    32    1
   139   178   177    1
   140   178   179    2
   141   182   180    1
   142    75    74    1
   143    28    27    1
   144    28    29    1
   145    28    31    1
   146    74    67   am
   147   177   180    1
   148    64    63    2
   149    29    30    2
   150   180   181    1
   151    31    32    1
   152    32    34    1
   153    67    66    1
   154    67    68    2
   155    66    65    1
   156    66    69    1
   157    63    65   am
   158    63    62    1
   159    70    69    1
   160    70    71    1
   161    62    61    1
   162    72    71    2
   163    71    73   am
   164    42    40   ar
   165    39    40    1
   166    39    36    1
   167    40    41   ar
   168    35    36    1
   169    36    37    1
   170    56    57    1
   171    56    53    1
   172    55    54    2
   173    57    58    1
   174    54    53    1
   175    37    38    2
   176    37    43   am
   177    53    52    1
   178    52    45   am
   179    43    44    1
   180    58    59    2
   181    58    60   am
   182    51    49   am
   183    48    49    1
   184    48    47    1
   185    45    44    1
   186    45    46    2
   187    44    47    1
   188    49    50    2
