@<TRIPOS>MOLECULE
tmp/2pv3A00.pdb
 180 175 0 0 0
SMALL
GASTEIGER

@<TRIPOS>ATOM
      1  N         74.0450   39.8010  -26.3710 N.3   149  GLU149     -0.1245
      2  CA        73.2540   40.0810  -27.5810 C.3   149  GLU149      0.1567
      3  C         72.1350   41.0660  -27.2600 C.2   149  GLU149      0.2260
      4  O         71.4570   40.9540  -26.2390 O.2   149  GLU149     -0.2867
      5  CB        72.6850   38.7910  -28.1850 C.3   149  GLU149      0.0388
      6  CG        73.6210   38.1050  -29.1750 C.3   149  GLU149      0.1160
      7  CD        73.6760   38.8100  -30.5220 C.2   149  GLU149      0.3649
      8  OE1       72.6040   39.0960  -31.0940 O.co2 149  GLU149     -0.2457
      9  OE2       74.7910   39.0690  -31.0170 O.co2 149  GLU149     -0.2457
     10  N         68.4060   47.0810  -30.5700 N.3   152  LEU152     -0.1245
     11  CA        68.0410   48.4270  -30.1440 C.3   152  LEU152      0.1561
     12  C         67.7300   49.3550  -31.3230 C.2   152  LEU152      0.2260
     13  O         68.1010   49.0840  -32.4670 O.2   152  LEU152     -0.2867
     14  CB        69.1190   49.0330  -29.2130 C.3   152  LEU152      0.0270
     15  CG        70.5750   49.2490  -29.6570 C.3   152  LEU152      0.0019
     16  CD1       71.3710   49.8420  -28.4880 C.3   152  LEU152      0.0001
     17  CD2       71.2440   47.9780  -30.1760 C.3   152  LEU152      0.0001
     18  N         67.4830   53.6370  -32.6630 N.3   154  HIS154     -0.1241
     19  CA        68.3770   54.7960  -32.6200 C.3   154  HIS154      0.1621
     20  C         67.7020   56.0880  -33.0730 C.2   154  HIS154      0.2264
     21  O         67.0210   56.1250  -34.1030 O.2   154  HIS154     -0.2867
     22  CB        69.5980   54.5440  -33.5060 C.3   154  HIS154      0.0745
     23  CG        70.7140   55.5180  -33.2900 C.ar  154  HIS154      0.0817
     24  ND1       70.5360   56.8830  -33.3480 N.ar  154  HIS154     -0.2268
     25  CD2       72.0270   55.3220  -33.0310 C.ar  154  HIS154      0.1154
     26  CE1       71.6890   57.4850  -33.1230 C.ar  154  HIS154      0.1986
     27  NE2       72.6110   56.5610  -32.9300 N.ar  154  HIS154     -0.2212
     28  N         69.0560   60.0490  -33.7370 N.3   156  LEU156     -0.1245
     29  CA        70.1320   61.0250  -33.7680 C.3   156  LEU156      0.1561
     30  C         69.5670   62.4280  -33.8570 C.2   156  LEU156      0.2260
     31  O         68.7890   62.7360  -34.7580 O.2   156  LEU156     -0.2867
     32  CB        71.0620   60.7700  -34.9550 C.3   156  LEU156      0.0270
     33  CG        72.1720   61.8020  -35.2050 C.3   156  LEU156      0.0019
     34  CD1       72.9430   62.1270  -33.9210 C.3   156  LEU156      0.0001
     35  CD2       73.1200   61.3080  -36.3030 C.3   156  LEU156      0.0001
     36  N         69.9120   59.5700  -39.0930 N.3   196  ASP196     -0.1225
     37  CA        70.8440   58.5740  -39.6430 C.3   196  ASP196      0.1805
     38  C         70.1870   57.8180  -40.8000 C.2   196  ASP196      0.2598
     39  O         68.9940   57.9720  -41.0520 O.2   196  ASP196     -0.2718
     40  CB        71.3610   57.6080  -38.5530 C.3   196  ASP196      0.1424
     41  CG        70.2460   56.9820  -37.7160 C.2   196  ASP196      0.3668
     42  OD1       69.1080   56.8490  -38.2080 O.co2 196  ASP196     -0.2456
     43  OD2       70.5200   56.6140  -36.5540 O.co2 196  ASP196     -0.2456
     44  N         70.9710   57.0130  -41.5110 N.am  197  GLN197     -0.1965
     45  CA        70.4490   56.2440  -42.6440 C.3   197  GLN197      0.1733
     46  C         69.2980   55.3250  -42.2410 C.2   197  GLN197      0.2616
     47  O         68.3540   55.1370  -43.0070 O.2   197  GLN197     -0.2715
     48  CB        71.5590   55.4270  -43.3000 C.3   197  GLN197      0.0408
     49  CG        72.5240   56.2610  -44.1120 C.3   197  GLN197      0.0908
     50  CD        73.4920   55.4080  -44.9030 C.2   197  GLN197      0.2608
     51  OE1       74.2170   54.5880  -44.3390 O.2   197  GLN197     -0.2717
     52  NE2       73.5050   55.5920  -46.2210 N.am  197  GLN197     -0.0878
     53  N         69.3790   54.7610  -41.0390 N.am  198  GLN198     -0.1977
     54  CA        68.2980   53.9480  -40.4920 C.3   198  GLN198      0.1601
     55  C         67.3770   54.8050  -39.6250 C.2   198  GLN198      0.2287
     56  O         67.1070   54.4660  -38.4750 O.2   198  GLN198     -0.2864
     57  CB        68.8710   52.7810  -39.6780 C.3   198  GLN198      0.0394
     58  CG        69.7760   51.8520  -40.4720 C.3   198  GLN198      0.0908
     59  CD        69.0800   51.2460  -41.6770 C.2   198  GLN198      0.2608
     60  OE1       67.8700   51.0150  -41.6640 O.2   198  GLN198     -0.2717
     61  NE2       69.8440   50.9880  -42.7290 N.am  198  GLN198     -0.0878
     62  N         68.3790   49.5260  -35.6280 N.3   205  MET205     -0.1230
     63  CA        69.7570   49.1420  -35.9070 C.3   205  MET205      0.1702
     64  C         69.8770   47.6270  -36.0910 C.2   205  MET205      0.2593
     65  O         70.6710   47.1600  -36.9130 O.2   205  MET205     -0.2718
     66  CB        70.6700   49.6090  -34.7730 C.3   205  MET205      0.0401
     67  CG        70.6930   51.1210  -34.5550 C.3   205  MET205      0.0596
     68  SD        71.3100   52.0910  -35.9480 S.3   205  MET205     -0.1393
     69  CE        72.6630   51.0880  -36.5620 C.3   205  MET205      0.0692
     70  N         69.0950   46.8690  -35.3230 N.am  206  GLY206     -0.1942
     71  CA        69.1160   45.4090  -35.3880 C.3   206  GLY206      0.2014
     72  C         69.7770   44.7620  -34.1820 C.2   206  GLY206      0.2639
     73  O         70.2700   45.4440  -33.2820 O.2   206  GLY206     -0.2714
     74  N         69.7630   43.4310  -34.1580 N.am  207  TRP207     -0.1959
     75  CA        70.4530   42.6680  -33.1240 C.3   207  TRP207      0.1771
     76  C         71.9430   42.9090  -33.2540 C.2   207  TRP207      0.2620
     77  O         72.4450   43.1010  -34.3600 O.2   207  TRP207     -0.2715
     78  CB        70.1860   41.1680  -33.2760 C.3   207  TRP207      0.0590
     79  CG        68.9250   40.6900  -32.6430 C.ar  207  TRP207      0.0006
     80  CD1       67.7640   40.3760  -33.2730 C.ar  207  TRP207      0.0946
     81  CD2       68.7070   40.4470  -31.2520 C.ar  207  TRP207      0.0152
     82  NE1       66.8290   39.9590  -32.3610 N.ar  207  TRP207     -0.2442
     83  CE2       67.3850   39.9940  -31.1110 C.ar  207  TRP207      0.0810
     84  CE3       69.5000   40.5740  -30.1100 C.ar  207  TRP207      0.0012
     85  CZ2       66.8370   39.6650  -29.8740 C.ar  207  TRP207      0.0191
     86  CZ3       68.9540   40.2480  -28.8820 C.ar  207  TRP207      0.0001
     87  CH2       67.6400   39.7960  -28.7750 C.ar  207  TRP207      0.0015
     88  N         72.6500   42.8960  -32.1300 N.am  208  GLY208     -0.1940
     89  CA        74.1080   42.9780  -32.1560 C.3   208  GLY208      0.2014
     90  C         74.7220   42.9920  -30.7710 C.2   208  GLY208      0.2638
     91  O         74.1900   43.6270  -29.8550 O.2   208  GLY208     -0.2714
     92  N         75.8520   42.2980  -30.6240 N.am  209  ARG209     -0.1977
     93  CA        76.5150   42.1850  -29.3270 C.3   209  ARG209      0.1597
     94  C         76.8340   43.5540  -28.7490 C.2   209  ARG209      0.2287
     95  O         77.0020   44.5370  -29.4750 O.2   209  ARG209     -0.2864
     96  CB        77.7830   41.3260  -29.4140 C.3   209  ARG209      0.0334
     97  CG        77.5320   39.8410  -29.1530 C.3   209  ARG209      0.0492
     98  CD        78.2760   38.9540  -30.1310 C.3   209  ARG209      0.2205
     99  NE        77.8260   39.1640  -31.5080 N.pl3 209  ARG209     -0.0865
    100  CZ        78.2870   38.5050  -32.5690 C.cat 209  ARG209      0.5346
    101  NH1       79.2250   37.5720  -32.4350 N.pl3 209  ARG209      0.1354
    102  NH2       77.8040   38.7800  -33.7760 N.pl3 209  ARG209      0.1354
    103  N         80.2680   44.8030  -29.9220 N.3   212  GLU212     -0.1231
    104  CA        80.3040   45.4170  -31.2490 C.3   212  GLU212      0.1699
    105  C         79.7770   46.8610  -31.2700 C.2   212  GLU212      0.2592
    106  O         80.0030   47.5790  -32.2440 O.2   212  GLU212     -0.2718
    107  CB        79.5550   44.5380  -32.2550 C.3   212  GLU212      0.0402
    108  CG        80.3380   43.2790  -32.6280 C.3   212  GLU212      0.1161
    109  CD        79.5190   42.2440  -33.3900 C.2   212  GLU212      0.3649
    110  OE1       78.2680   42.2450  -33.2700 O.co2 212  GLU212     -0.2457
    111  OE2       80.1390   41.4180  -34.1030 O.co2 212  GLU212     -0.2457
    112  N         79.0930   47.2900  -30.2070 N.am  213  LEU213     -0.1966
    113  CA        78.6700   48.6850  -30.0740 C.3   213  LEU213      0.1713
    114  C         79.8700   49.6030  -29.8710 C.2   213  LEU213      0.2458
    115  O         80.8630   49.1940  -29.2570 O.2   213  LEU213     -0.2730
    116  CB        77.7390   48.8600  -28.8770 C.3   213  LEU213      0.0310
    117  CG        76.3830   48.1760  -28.9620 C.3   213  LEU213      0.0022
    118  CD1       75.7180   48.2200  -27.6070 C.3   213  LEU213      0.0001
    119  CD2       75.5180   48.8480  -30.0090 C.3   213  LEU213      0.0001
    120  N         79.7810   50.8490  -30.3820 N.am  214  PRO214     -0.2727
    121  CA        80.6960   51.9170  -29.9990 C.3   214  PRO214      0.1402
    122  C         80.9040   51.9940  -28.4780 C.2   214  PRO214      0.2269
    123  O         79.9350   52.1320  -27.7280 O.2   214  PRO214     -0.2865
    124  CB        79.9800   53.1660  -30.5100 C.3   214  PRO214      0.0296
    125  CG        79.3000   52.7010  -31.7250 C.3   214  PRO214      0.0237
    126  CD        78.8150   51.3180  -31.3910 C.3   214  PRO214      0.0939
    127  N         81.3760   53.9650  -26.1590 N.3   216  ILE216     -0.1231
    128  CA        80.6660   54.9570  -25.3260 C.3   216  ILE216      0.1692
    129  C         79.2100   54.5790  -24.9950 C.2   216  ILE216      0.2592
    130  O         78.6490   55.0320  -23.9880 O.2   216  ILE216     -0.2718
    131  CB        80.7070   56.3730  -25.9760 C.3   216  ILE216      0.0266
    132  CG1       79.8530   56.4390  -27.2490 C.3   216  ILE216      0.0019
    133  CG2       82.1390   56.7730  -26.3000 C.3   216  ILE216      0.0020
    134  CD1       78.4450   56.9890  -27.0260 C.3   216  ILE216      0.0001
    135  N         78.6090   53.7690  -25.8650 N.am  217  PHE217     -0.1976
    136  CA        77.2790   53.2090  -25.6410 C.3   217  PHE217      0.1639
    137  C         77.3220   52.0300  -24.6610 C.2   217  PHE217      0.2290
    138  O         76.5030   51.9430  -23.7380 O.2   217  PHE217     -0.2864
    139  CB        76.6730   52.7290  -26.9630 C.3   217  PHE217      0.0560
    140  CG        76.2680   53.8380  -27.9050 C.ar  217  PHE217     -0.0200
    141  CD1       75.5730   54.9530  -27.4460 C.ar  217  PHE217     -0.0042
    142  CD2       76.5350   53.7340  -29.2670 C.ar  217  PHE217     -0.0042
    143  CE1       75.1800   55.9550  -28.3210 C.ar  217  PHE217     -0.0003
    144  CE2       76.1420   54.7290  -30.1480 C.ar  217  PHE217     -0.0003
    145  CZ        75.4650   55.8420  -29.6750 C.ar  217  PHE217     -0.0000
    146  N         78.2400   62.7930  -28.6710 N.3   235  SER235     -0.1202
    147  CA        79.5020   62.3610  -29.2870 C.3   235  SER235      0.2020
    148  C         79.9280   63.3320  -30.3860 C.2   235  SER235      0.2619
    149  O         79.3600   64.4180  -30.5260 O.2   235  SER235     -0.2717
    150  CB        79.3720   60.9480  -29.8780 C.3   235  SER235      0.2103
    151  OG        79.2550   60.9830  -31.2970 O.3   235  SER235     -0.2182
    152  N         80.9270   62.9200  -31.1650 N.am  236  GLY236     -0.1942
    153  CA        81.4200   63.6960  -32.2920 C.3   236  GLY236      0.2014
    154  C         80.3320   64.3240  -33.1410 C.2   236  GLY236      0.2638
    155  O         80.4290   65.4980  -33.4920 O.2   236  GLY236     -0.2714
    156  N         79.2850   63.5590  -33.4480 N.am  237  VAL237     -0.1977
    157  CA        78.2720   63.9900  -34.4260 C.3   237  VAL237      0.1596
    158  C         77.0040   64.6380  -33.8430 C.2   237  VAL237      0.2287
    159  O         76.2280   65.2370  -34.5900 O.2   237  VAL237     -0.2864
    160  CB        77.8590   62.8210  -35.3550 C.3   237  VAL237      0.0276
    161  CG1       79.0990   62.1030  -35.8810 C.3   237  VAL237      0.0022
    162  CG2       76.9280   61.8430  -34.6400 C.3   237  VAL237      0.0022
    163  N         72.7140   61.2430  -29.3650 N.3   240  HIS240     -0.1241
    164  CA        72.0550   59.9850  -29.7360 C.3   240  HIS240      0.1621
    165  C         71.0900   59.5470  -28.6350 C.2   240  HIS240      0.2264
    166  O         71.3120   59.8390  -27.4600 O.2   240  HIS240     -0.2867
    167  CB        73.0760   58.8570  -29.9410 C.3   240  HIS240      0.0745
    168  CG        74.2660   59.2460  -30.7590 C.ar  240  HIS240      0.0817
    169  ND1       75.2580   60.0690  -30.2770 N.ar  240  HIS240     -0.2268
    170  CD2       74.6390   58.8990  -32.0140 C.ar  240  HIS240      0.1154
    171  CE1       76.1840   60.2270  -31.2060 C.ar  240  HIS240      0.1986
    172  NE2       75.8330   59.5260  -32.2680 N.ar  240  HIS240     -0.2212
    173  N         68.7910   55.8080  -27.5730 N.3   242  LEU242     -0.1245
    174  CA        68.6620   54.3900  -27.8760 C.3   242  LEU242      0.1561
    175  C         67.4940   53.8080  -27.1180 C.2   242  LEU242      0.2260
    176  O         67.3140   54.1060  -25.9420 O.2   242  LEU242     -0.2867
    177  CB        69.9280   53.6480  -27.4590 C.3   242  LEU242      0.0270
    178  CG        71.2610   54.1790  -27.9980 C.3   242  LEU242      0.0019
    179  CD1       72.4240   53.7560  -27.1130 C.3   242  LEU242      0.0001
    180  CD2       71.4830   53.7150  -29.4320 C.3   242  LEU242      0.0001
@<TRIPOS>BOND
     1    52    50   am
     2    50    51    2
     3    50    49    1
     4    49    48    1
     5    48    45    1
     6    47    46    2
     7    61    59   am
     8    45    46    1
     9    45    44    1
    10    46    53   am
    11    59    60    2
    12    59    58    1
    13    44    38   am
    14    39    38    2
    15    53    54    1
    16    38    37    1
    17    54    57    1
    18    54    55    1
    19    58    57    1
    20    37    36    1
    21    37    40    1
    22    55    56    2
    23    40    41    1
    24    42    41   ar
    25    41    43   ar
    26    65    64    2
    27    69    68    1
    28    35    33    1
    29    64    63    1
    30    64    70   am
    31    68    67    1
    32    63    62    1
    33    63    66    1
    34   161   160    1
    35    71    70    1
    36    71    72    1
    37   160   162    1
    38   160   157    1
    39    33    32    1
    40    33    34    1
    41    32    29    1
    42    66    67    1
    43    31    30    2
    44   159   158    2
    45   157   158    1
    46   157   156    1
    47    77    76    2
    48    72    74   am
    49    72    73    2
    50    74    75    1
    51    21    20    2
    52   111   109   ar
    53    30    29    1
    54   102   100    1
    55    29    28    1
    56    22    23    1
    57    22    19    1
    58   155   154    2
    59   156   154   am
    60   109   110   ar
    61   109   108    1
    62    24    23   ar
    63    24    26   ar
    64    23    25   ar
    65    78    75    1
    66    78    79    1
    67    80    79   ar
    68    80    82   ar
    69    76    75    1
    70    76    88   am
    71   154   153    1
    72    26    27   ar
    73    20    19    1
    74    25    27   ar
    75    18    19    1
    76    79    81   ar
    77   108   107    1
    78   100   101    1
    79   100    99    2
    80    13    12    2
    81    82    83   ar
    82   153   152    1
    83   172   170   ar
    84   172   171   ar
    85   107   104    1
    86   106   105    2
    87    89    88    1
    88    89    90    1
    89   170   168   ar
    90   125   126    1
    91   125   124    1
    92    99    98    1
    93   126   120    1
    94    12    11    1
    95   151   150    1
    96   105   104    1
    97   105   112   am
    98    81    83   ar
    99    81    84   ar
   100   104   103    1
   101   171   169   ar
   102   152   148   am
   103    83    85   ar
   104     8     7   ar
   105     9     7   ar
   106    90    92   am
   107    90    91    2
   108   168   169   ar
   109   168   167    1
   110    92    93    1
   111    10    11    1
   112   149   148    2
   113     7     6    1
   114   124   121    1
   115   148   147    1
   116   120   121    1
   117   120   114   am
   118   112   113    1
   119    17    15    1
   120   144   145   ar
   121   144   142   ar
   122    11    14    1
   123    98    97    1
   124    84    86   ar
   125   113   114    1
   126   113   116    1
   127   119   117    1
   128   121   122    1
   129   167   164    1
   130   150   147    1
   131    85    87   ar
   132   114   115    2
   133   164   163    1
   134   164   165    1
   135   145   143   ar
   136    15    14    1
   137    15    16    1
   138    95    94    2
   139   180   178    1
   140    96    93    1
   141    96    97    1
   142    93    94    1
   143   147   146    1
   144   142   140   ar
   145     6     5    1
   146   117   116    1
   147   117   118    1
   148    86    87   ar
   149   165   166    2
   150   122   123    2
   151   143   141   ar
   152     5     2    1
   153   178   177    1
   154   178   179    1
   155   140   141   ar
   156   140   139    1
   157   174   173    1
   158   174   177    1
   159   174   175    1
   160     2     3    1
   161     2     1    1
   162     3     4    2
   163   132   134    1
   164   132   131    1
   165   175   176    2
   166   139   136    1
   167   133   131    1
   168   127   128    1
   169   131   128    1
   170   135   136    1
   171   135   129   am
   172   136   137    1
   173   128   129    1
   174   129   130    2
   175   137   138    2
