@<TRIPOS>MOLECULE
tmp/2pv7B00.pdb
 121 116 0 0 0
SMALL
GASTEIGER

@<TRIPOS>ATOM
      1  N         29.8780   76.0320   44.1450 N.3    87  SER87      -0.1217
      2  CA        29.9200   74.9340   45.1270 C.3    87  SER87       0.1889
      3  C         31.0780   75.0240   46.1290 C.2    87  SER87       0.2288
      4  O         31.0820   74.3080   47.1300 O.2    87  SER87      -0.2866
      5  CB        29.9270   73.5470   44.4290 C.3    87  SER87       0.2089
      6  OG        28.7570   73.3660   43.6320 O.3    87  SER87      -0.2183
      7  N         25.8920   79.3180   48.1210 N.3   107  HIS107     -0.1227
      8  CA        25.9410   77.9090   47.6900 C.3   107  HIS107      0.1737
      9  C         24.5710   77.2940   47.8700 C.2   107  HIS107      0.2438
     10  O         24.1790   76.8720   48.9760 O.2   107  HIS107     -0.2733
     11  CB        27.0490   77.0830   48.4020 C.3   107  HIS107      0.0758
     12  CG        27.1680   75.6690   47.9190 C.ar  107  HIS107      0.0818
     13  ND1       27.9190   74.7310   48.5850 N.ar  107  HIS107     -0.2268
     14  CD2       26.6480   75.0350   46.8250 C.ar  107  HIS107      0.1154
     15  CE1       27.8760   73.5860   47.9220 C.ar  107  HIS107      0.1986
     16  NE2       27.0920   73.7330   46.8590 N.ar  107  HIS107     -0.2212
     17  N         23.8040   77.2600   46.7740 N.am  108  PRO108     -0.2729
     18  CA        22.5360   76.5160   46.7760 C.3   108  PRO108      0.1401
     19  C         22.8430   75.0110   46.8700 C.2   108  PRO108      0.2269
     20  O         23.5930   74.4760   46.0400 O.2   108  PRO108     -0.2865
     21  CB        21.8870   76.9020   45.4490 C.3   108  PRO108      0.0296
     22  CG        22.6970   78.0810   44.8950 C.3   108  PRO108      0.0237
     23  CD        24.0820   77.9140   45.4720 C.3   108  PRO108      0.0939
     24  N         21.4290   72.3140   46.2760 N.3   109  PHE109     -0.1227
     25  CA        20.4410   71.5420   45.4730 C.3   109  PHE109      0.1736
     26  C         20.7050   71.7260   44.0050 C.2   109  PHE109      0.2596
     27  O         21.3590   72.6990   43.5940 O.2   109  PHE109     -0.2718
     28  CB        18.9690   71.9670   45.7710 C.3   109  PHE109      0.0547
     29  CG        18.7190   73.4740   45.6960 C.ar  109  PHE109     -0.0202
     30  CD1       18.4150   74.1070   44.4950 C.ar  109  PHE109     -0.0042
     31  CD2       18.8410   74.2620   46.8340 C.ar  109  PHE109     -0.0042
     32  CE1       18.2520   75.4920   44.4270 C.ar  109  PHE109     -0.0003
     33  CE2       18.6290   75.6650   46.7830 C.ar  109  PHE109     -0.0003
     34  CZ        18.3030   76.2680   45.5830 C.ar  109  PHE109     -0.0000
     35  N         20.1650   70.7940   43.2210 N.am  110  GLY110     -0.1957
     36  CA        20.3030   70.8250   41.7950 C.3   110  GLY110      0.1869
     37  C         19.1530   71.5920   41.1950 C.2   110  GLY110      0.2309
     38  O         18.1610   71.9260   41.8860 O.2   110  GLY110     -0.2863
     39  N         16.8630   70.6730   39.1640 N.3   112  ASP112     -0.1239
     40  CA        15.6410   69.9340   38.8880 C.3   112  ASP112      0.1674
     41  C         14.5730   70.0860   39.9770 C.2   112  ASP112      0.2266
     42  O         13.5010   69.4770   39.8770 O.2   112  ASP112     -0.2867
     43  CB        15.9310   68.4370   38.5950 C.3   112  ASP112      0.1410
     44  CG        16.4890   67.6510   39.8360 C.2   112  ASP112      0.3668
     45  OD1       17.4620   68.1110   40.4430 O.co2 112  ASP112     -0.2456
     46  OD2       15.9650   66.5570   40.1920 O.co2 112  ASP112     -0.2456
     47  N         30.0490   66.6930   50.7450 N.3   160  GLN160     -0.1245
     48  CA        30.0710   66.5470   49.2850 C.3   160  GLN160      0.1566
     49  C         31.2190   65.7120   48.7730 C.2   160  GLN160      0.2260
     50  O         31.0190   64.7260   48.0620 O.2   160  GLN160     -0.2867
     51  CB        30.1020   67.9140   48.6260 C.3   160  GLN160      0.0367
     52  CG        28.7870   68.7390   48.7690 C.3   160  GLN160      0.0905
     53  CD        28.7900   69.9720   47.8940 C.2   160  GLN160      0.2608
     54  OE1       29.7250   70.7520   47.9480 O.2   160  GLN160     -0.2717
     55  NE2       27.7740   70.1260   47.0420 N.am  160  GLN160     -0.0878
     56  N         30.0440   62.1240   47.6540 N.3   164  HIS164     -0.1241
     57  CA        29.9060   61.9300   46.1980 C.3   164  HIS164      0.1621
     58  C         31.0200   61.0440   45.6460 C.2   164  HIS164      0.2264
     59  O         30.7690   60.2420   44.7300 O.2   164  HIS164     -0.2867
     60  CB        29.8640   63.2700   45.4670 C.3   164  HIS164      0.0745
     61  CG        28.7440   64.1510   45.9240 C.ar  164  HIS164      0.0817
     62  ND1       27.4650   63.6800   46.1160 N.ar  164  HIS164     -0.2268
     63  CD2       28.7030   65.4720   46.2010 C.ar  164  HIS164      0.1154
     64  CE1       26.6920   64.6740   46.5080 C.ar  164  HIS164      0.1986
     65  NE2       27.4230   65.7700   46.5810 N.ar  164  HIS164     -0.2212
     66  N         21.0220   58.0700   40.6530 N.3   200  ARG200     -0.1231
     67  CA        20.6680   59.4840   40.3940 C.3   200  ARG200      0.1694
     68  C         21.8890   60.4310   40.2480 C.2   200  ARG200      0.2591
     69  O         21.7810   61.4830   39.6120 O.2   200  ARG200     -0.2718
     70  CB        19.7350   60.0440   41.4730 C.3   200  ARG200      0.0321
     71  CG        20.3840   60.1430   42.8530 C.3   200  ARG200      0.0489
     72  CD        19.3740   60.5900   43.8960 C.3   200  ARG200      0.2205
     73  NE        18.8700   61.9200   43.5900 N.pl3 200  ARG200     -0.0865
     74  CZ        19.5530   63.0360   43.8010 C.cat 200  ARG200      0.5346
     75  NH1       20.7530   62.9680   44.3040 N.pl3 200  ARG200      0.1354
     76  NH2       19.0460   64.2190   43.4490 N.pl3 200  ARG200      0.1354
     77  N         23.0310   60.0380   40.8200 N.am  201  LEU201     -0.1980
     78  CA        24.2420   60.7980   40.6960 C.3   201  LEU201      0.1596
     79  C         24.6350   60.9450   39.2150 C.2   201  LEU201      0.2287
     80  O         25.0620   62.0180   38.7770 O.2   201  LEU201     -0.2864
     81  CB        25.3690   60.1040   41.4590 C.3   201  LEU201      0.0297
     82  CG        26.7550   60.7590   41.3210 C.3   201  LEU201      0.0022
     83  CD1       26.7080   62.1690   41.8500 C.3   201  LEU201      0.0001
     84  CD2       27.9070   59.9710   41.9620 C.3   201  LEU201      0.0001
     85  N         23.5500   63.4870   36.4370 N.3   204  GLN204     -0.1245
     86  CA        24.0600   64.8360   36.5750 C.3   204  GLN204      0.1566
     87  C         25.4210   65.0040   35.8610 C.2   204  GLN204      0.2260
     88  O         25.9620   64.0500   35.2860 O.2   204  GLN204     -0.2867
     89  CB        24.1340   65.1740   38.0650 C.3   204  GLN204      0.0367
     90  CG        22.7980   64.9000   38.7880 C.3   204  GLN204      0.0905
     91  CD        22.9030   65.0870   40.2770 C.2   204  GLN204      0.2608
     92  OE1       23.4350   66.0980   40.7330 O.2   204  GLN204     -0.2717
     93  NE2       22.4250   64.0830   41.0640 N.am  204  GLN204     -0.0878
     94  N         30.9020   68.7180   37.3390 N.3   208  LEU208     -0.1231
     95  CA        30.5680   69.3040   38.6280 C.3   208  LEU208      0.1693
     96  C         31.1760   68.5180   39.7750 C.2   208  LEU208      0.2592
     97  O         31.8660   69.1010   40.6430 O.2   208  LEU208     -0.2718
     98  CB        29.0790   69.4420   38.7750 C.3   208  LEU208      0.0284
     99  CG        28.4950   69.9910   40.0760 C.3   208  LEU208      0.0019
    100  CD1       28.8620   71.4570   40.2520 C.3   208  LEU208      0.0001
    101  CD2       27.0150   69.7430   40.0800 C.3   208  LEU208      0.0001
    102  N         30.9440   67.2090   39.7580 N.am  209  TYR209     -0.1976
    103  CA        31.4280   66.3180   40.8010 C.3   209  TYR209      0.1639
    104  C         32.9500   66.1790   40.7880 C.2   209  TYR209      0.2290
    105  O         33.5490   66.1840   41.8330 O.2   209  TYR209     -0.2864
    106  CB        30.7130   64.9910   40.7740 C.3   209  TYR209      0.0560
    107  CG        29.2840   65.2080   41.2160 C.ar  209  TYR209     -0.0198
    108  CD1       28.9830   65.4160   42.5580 C.ar  209  TYR209     -0.0009
    109  CD2       28.2430   65.2960   40.2960 C.ar  209  TYR209     -0.0009
    110  CE1       27.6690   65.6860   42.9580 C.ar  209  TYR209      0.0417
    111  CE2       26.9490   65.5520   40.6910 C.ar  209  TYR209      0.0417
    112  CZ        26.6610   65.6970   42.0270 C.ar  209  TYR209      0.1957
    113  OH        25.3610   65.9510   42.4540 O.3   209  TYR209     -0.2866
    114  N         34.2970   69.4960   42.4080 N.3   212  ILE212     -0.1245
    115  CA        34.0460   69.4650   43.8370 C.3   212  ILE212      0.1561
    116  C         35.0890   68.6050   44.5810 C.2   212  ILE212      0.2260
    117  O         35.6710   69.0320   45.5730 O.2   212  ILE212     -0.2867
    118  CB        32.5730   69.0120   44.1480 C.3   212  ILE212      0.0252
    119  CG1       31.6080   70.1200   43.7200 C.3   212  ILE212      0.0019
    120  CG2       32.3840   68.6070   45.6050 C.3   212  ILE212      0.0019
    121  CD1       30.1230   69.7980   43.8040 C.3   212  ILE212      0.0001
@<TRIPOS>BOND
     1    88    87    2
     2    87    86    1
     3    85    86    1
     4    86    89    1
     5    94    95    1
     6    89    90    1
     7    43    40    1
     8    43    44    1
     9    95    98    1
    10    95    96    1
    11    98    99    1
    12    80    79    2
    13    90    91    1
    14    40    39    1
    15    40    41    1
    16    79    78    1
    17    69    68    2
    18   102    96   am
    19   102   103    1
    20    96    97    2
    21    44    46   ar
    22    44    45   ar
    23    42    41    2
    24    99   101    1
    25    99   100    1
    26    68    67    1
    27    68    77   am
    28    91    92    2
    29    91    93   am
    30   109   111   ar
    31   109   107   ar
    32    67    66    1
    33    67    70    1
    34   111   112   ar
    35    78    77    1
    36    78    81    1
    37   106   103    1
    38   106   107    1
    39   104   103    1
    40   104   105    2
    41    37    36    1
    42    37    38    2
    43   107   108   ar
    44    82    81    1
    45    82    83    1
    46    82    84    1
    47    70    71    1
    48    36    35    1
    49   112   113    1
    50   112   110   ar
    51   114   115    1
    52   108   110   ar
    53    71    72    1
    54    35    26   am
    55    76    74    1
    56    73    74    2
    57    73    72    1
    58    27    26    2
    59     6     5    1
    60   119   121    1
    61   119   118    1
    62    74    75    1
    63   115   118    1
    64   115   116    1
    65    26    25    1
    66     1     2    1
    67   118   120    1
    68    32    30   ar
    69    32    34   ar
    70     5     2    1
    71    30    29   ar
    72   116   117    2
    73    59    58    2
    74    22    21    1
    75    22    23    1
    76     2     3    1
    77    21    18    1
    78    60    61    1
    79    60    57    1
    80    23    17    1
    81    25    28    1
    82    25    24    1
    83    34    33   ar
    84    58    57    1
    85    29    28    1
    86    29    31   ar
    87    61    62   ar
    88    61    63   ar
    89    20    19    2
    90    62    64   ar
    91     3     4    2
    92    57    56    1
    93    63    65   ar
    94    64    65   ar
    95    17    18    1
    96    17     9   am
    97    18    19    1
    98    33    31   ar
    99    14    16   ar
   100    14    12   ar
   101    16    15   ar
   102    55    53   am
   103     8     9    1
   104     8     7    1
   105     8    11    1
   106     9    10    2
   107    53    54    2
   108    53    52    1
   109    12    11    1
   110    12    13   ar
   111    15    13   ar
   112    50    49    2
   113    51    52    1
   114    51    48    1
   115    49    48    1
   116    48    47    1
