@<TRIPOS>MOLECULE
tmp/2pvaC00.pdb
 122 116 0 0 0
SMALL
GASTEIGER

@<TRIPOS>ATOM
      1  N         84.3770   73.6470   46.8310 N.3    16  ARG16      -0.1245
      2  CA        82.9830   74.0380   46.6960 C.3    16  ARG16       0.1563
      3  C         82.3520   74.5680   47.9970 C.2    16  ARG16       0.2260
      4  O         82.6780   74.1700   49.1160 O.2    16  ARG16      -0.2867
      5  CB        82.1310   72.8670   46.2000 C.3    16  ARG16       0.0307
      6  CG        82.0170   71.6990   47.1680 C.3    16  ARG16       0.0489
      7  CD        80.8560   71.7870   48.1510 C.3    16  ARG16       0.2205
      8  NE        79.5560   71.8030   47.4870 N.pl3  16  ARG16      -0.0865
      9  CZ        78.9370   70.7520   46.9640 C.cat  16  ARG16       0.5346
     10  NH1       79.4390   69.5350   47.0560 N.pl3  16  ARG16       0.1354
     11  NH2       77.7840   70.9060   46.3250 N.pl3  16  ARG16       0.1354
     12  N         78.6740   74.7640   49.9230 N.3    18  MET18      -0.1230
     13  CA        77.3870   74.0870   49.9700 C.3    18  MET18       0.1702
     14  C         76.3180   75.0470   50.4960 C.2    18  MET18       0.2592
     15  O         76.2870   75.3730   51.6860 O.2    18  MET18      -0.2718
     16  CB        77.4720   72.8870   50.9000 C.3    18  MET18       0.0401
     17  CG        76.9950   71.6080   50.2660 C.3    18  MET18       0.0596
     18  SD        75.2490   71.2800   50.2550 S.3    18  MET18      -0.1393
     19  CE        74.9080   70.8760   51.9510 C.3    18  MET18       0.0692
     20  N         75.4530   75.5440   49.6480 N.am   19  ASP19      -0.1960
     21  CA        74.3950   76.4690   50.0040 C.3    19  ASP19       0.1840
     22  C         73.0710   75.7300   50.0650 C.2    19  ASP19       0.2622
     23  O         72.7140   75.1720   49.0310 O.2    19  ASP19      -0.2715
     24  CB        74.2900   77.5300   48.8970 C.3    19  ASP19       0.1450
     25  CG        75.5700   78.3390   48.7960 C.2    19  ASP19       0.3671
     26  OD1       76.3410   78.4580   49.7760 O.co2  19  ASP19      -0.2456
     27  OD2       75.7860   78.8770   47.6960 O.co2  19  ASP19      -0.2456
     28  N         72.3190   75.8080   51.1390 N.am   20  PHE20      -0.1974
     29  CA        71.0300   75.1380   51.1880 C.3    20  PHE20       0.1639
     30  C         70.1590   75.6950   52.3020 C.2    20  PHE20       0.2290
     31  O         70.5700   76.5770   53.0500 O.2    20  PHE20      -0.2864
     32  CB        71.2670   73.6310   51.3020 C.3    20  PHE20       0.0560
     33  CG        70.1070   72.8040   50.8070 C.ar   20  PHE20      -0.0200
     34  CD1       69.5910   73.0120   49.5350 C.ar   20  PHE20      -0.0042
     35  CD2       69.5660   71.8040   51.5800 C.ar   20  PHE20      -0.0042
     36  CE1       68.5340   72.2660   49.0540 C.ar   20  PHE20      -0.0003
     37  CE2       68.5200   71.0340   51.1080 C.ar   20  PHE20      -0.0003
     38  CZ        67.9980   71.2720   49.8500 C.ar   20  PHE20      -0.0000
     39  N         71.0430   68.4940   56.4810 N.3    24  PRO24      -0.2116
     40  CA        70.8630   67.0600   56.6540 C.3    24  PRO24       0.1372
     41  C         72.0290   66.5180   57.4560 C.2    24  PRO24       0.2244
     42  O         73.0860   67.1600   57.4530 O.2    24  PRO24      -0.2868
     43  CB        70.8100   66.5310   55.2340 C.3    24  PRO24       0.0268
     44  CG        71.3040   67.5880   54.3260 C.3    24  PRO24       0.0207
     45  CD        71.5460   68.8300   55.1300 C.3    24  PRO24       0.0892
     46  N         75.7360   58.6480   50.3410 N.3    65  VAL65      -0.1245
     47  CA        75.5760   59.5580   49.2070 C.3    65  VAL65       0.1561
     48  C         76.5920   60.6730   49.4640 C.2    65  VAL65       0.2260
     49  O         76.5990   61.2030   50.5690 O.2    65  VAL65      -0.2867
     50  CB        74.1840   60.0330   48.8190 C.3    65  VAL65       0.0252
     51  CG1       73.1240   59.1030   49.3900 C.3    65  VAL65       0.0019
     52  CG2       73.8910   61.4940   49.0800 C.3    65  VAL65       0.0019
     53  N         78.4440   64.2870   48.4390 N.3    67  TYR67      -0.1241
     54  CA        78.1730   65.5530   47.7480 C.3    67  TYR67       0.1605
     55  C         79.3690   66.0100   46.9140 C.2    67  TYR67       0.2264
     56  O         79.3040   66.7540   45.9230 O.2    67  TYR67      -0.2867
     57  CB        77.8310   66.6100   48.7950 C.3    67  TYR67       0.0534
     58  CG        76.9450   66.1910   49.9540 C.ar   67  TYR67      -0.0201
     59  CD1       75.7940   65.4300   49.7830 C.ar   67  TYR67      -0.0009
     60  CD2       77.1960   66.7120   51.2220 C.ar   67  TYR67      -0.0009
     61  CE1       74.9760   65.1130   50.8390 C.ar   67  TYR67       0.0417
     62  CE2       76.3680   66.4180   52.2830 C.ar   67  TYR67       0.0417
     63  CZ        75.2530   65.6370   52.0900 C.ar   67  TYR67       0.1957
     64  OH        74.4710   65.3170   53.1840 O.3    67  TYR67      -0.2866
     65  N         78.3160   67.4290   43.3200 N.3    79  MET79      -0.1245
     66  CA        76.9840   67.5780   42.7380 C.3    79  MET79       0.1570
     67  C         76.4550   68.9380   43.2280 C.2    79  MET79       0.2261
     68  O         76.5600   69.2540   44.4220 O.2    79  MET79      -0.2867
     69  CB        76.0560   66.4360   43.1260 C.3    79  MET79       0.0387
     70  CG        75.9180   66.1790   44.6030 C.3    79  MET79       0.0595
     71  SD        74.7280   64.8790   45.0110 S.3    79  MET79      -0.1393
     72  CE        74.9190   63.7900   43.6310 C.3    79  MET79       0.0692
     73  N         73.3260   72.1040   42.7770 N.3    81  TYR81      -0.1241
     74  CA        71.9190   72.2580   42.3670 C.3    81  TYR81       0.1605
     75  C         71.8100   72.8060   40.9530 C.2    81  TYR81       0.2264
     76  O         72.6300   73.6150   40.5240 O.2    81  TYR81      -0.2867
     77  CB        71.3390   73.1520   43.4610 C.3    81  TYR81       0.0534
     78  CG        70.0870   72.5520   44.0480 C.ar   81  TYR81      -0.0201
     79  CD1       70.0870   71.4150   44.8300 C.ar   81  TYR81      -0.0009
     80  CD2       68.8800   73.1900   43.7710 C.ar   81  TYR81      -0.0009
     81  CE1       68.8900   70.9180   45.3230 C.ar   81  TYR81       0.0417
     82  CE2       67.6820   72.7140   44.2570 C.ar   81  TYR81       0.0417
     83  CZ        67.7090   71.5780   45.0380 C.ar   81  TYR81       0.1957
     84  OH        66.5000   71.1160   45.5190 O.3    81  TYR81      -0.2866
     85  N         71.3560   61.0220   42.9750 N.3   102  VAL102     -0.1245
     86  CA        71.9690   61.2240   44.2690 C.3   102  VAL102      0.1561
     87  C         73.1300   60.2830   44.4960 C.2   102  VAL102      0.2260
     88  O         74.0120   60.4700   45.3250 O.2   102  VAL102     -0.2867
     89  CB        70.7950   61.1340   45.2920 C.3   102  VAL102      0.0252
     90  CG1       70.9950   60.1740   46.4380 C.3   102  VAL102      0.0019
     91  CG2       70.4410   62.5250   45.7970 C.3   102  VAL102      0.0019
     92  N         65.4580   61.3890   52.3490 N.3   134  ILE134     -0.1231
     93  CA        65.9970   62.6130   52.8870 C.3   134  ILE134      0.1692
     94  C         65.2780   63.8850   52.4570 C.2   134  ILE134      0.2591
     95  O         65.1270   64.7380   53.3440 O.2   134  ILE134     -0.2718
     96  CB        67.4900   62.8260   52.5280 C.3   134  ILE134      0.0266
     97  CG1       68.3290   61.5690   52.7610 C.3   134  ILE134      0.0019
     98  CG2       68.0470   63.9980   53.3200 C.3   134  ILE134      0.0020
     99  CD1       69.6890   61.5760   52.0810 C.3   134  ILE134      0.0001
    100  N         64.9570   64.1250   51.1940 N.am  135  LEU135     -0.1980
    101  CA        64.3020   65.3670   50.8100 C.3   135  LEU135      0.1596
    102  C         62.8680   65.1410   50.3380 C.2   135  LEU135      0.2287
    103  O         62.0900   66.0920   50.1840 O.2   135  LEU135     -0.2864
    104  CB        65.0440   66.0910   49.6880 C.3   135  LEU135      0.0297
    105  CG        66.5610   66.1950   49.7190 C.3   135  LEU135      0.0022
    106  CD1       67.1060   66.8450   48.4550 C.3   135  LEU135      0.0001
    107  CD2       67.0200   66.9310   50.9700 C.3   135  LEU135      0.0001
    108  N         66.3330   65.7060   43.7740 N.3   139  PRO139     -0.2116
    109  CA        66.8870   67.0360   43.6070 C.3   139  PRO139      0.1372
    110  C         67.3820   67.2900   42.1940 C.2   139  PRO139      0.2244
    111  O         67.8900   66.3950   41.5530 O.2   139  PRO139     -0.2868
    112  CB        68.0500   67.0930   44.5890 C.3   139  PRO139      0.0268
    113  CG        68.3590   65.6950   44.9610 C.3   139  PRO139      0.0207
    114  CD        67.1410   64.8670   44.6890 C.3   139  PRO139      0.0892
    115  N         69.9620   68.3480   39.8480 N.3   141  LEU141     -0.1245
    116  CA        71.4090   68.4580   39.9920 C.3   141  LEU141      0.1561
    117  C         72.1810   68.5400   38.6950 C.2   141  LEU141      0.2260
    118  O         71.7390   68.0690   37.6300 O.2   141  LEU141     -0.2867
    119  CB        71.9210   67.1850   40.7090 C.3   141  LEU141      0.0270
    120  CG        71.3520   66.8940   42.0930 C.3   141  LEU141      0.0019
    121  CD1       71.7230   65.5180   42.6030 C.3   141  LEU141      0.0001
    122  CD2       71.7890   67.9840   43.0830 C.3   141  LEU141      0.0001
@<TRIPOS>BOND
     1   118   117    2
     2   117   116    1
     3   115   116    1
     4   116   119    1
     5    76    75    2
     6   119   120    1
     7    75    74    1
     8   111   110    2
     9   120   121    1
    10   120   122    1
    11   110   109    1
    12    74    73    1
    13    74    77    1
    14    66    69    1
    15    66    67    1
    16    66    65    1
    17    85    86    1
    18    69    70    1
    19    67    68    2
    20    77    78    1
    21   109   108    1
    22   109   112    1
    23    72    71    1
    24    80    78   ar
    25    80    82   ar
    26   108   114    1
    27    78    79   ar
    28    82    83   ar
    29    86    87    1
    30    86    89    1
    31    87    88    2
    32   112   113    1
    33    70    71    1
    34   114   113    1
    35    79    81   ar
    36    83    81   ar
    37    83    84    1
    38    89    91    1
    39    89    90    1
    40    56    55    2
    41     5     2    1
    42     5     6    1
    43    11     9    1
    44     2     1    1
    45     2     3    1
    46    55    54    1
    47     9    10    1
    48     9     8    2
    49     6     7    1
    50     8     7    1
    51    27    25   ar
    52    54    53    1
    53    54    57    1
    54     3     4    2
    55   106   105    1
    56    57    58    1
    57    25    24    1
    58    25    26   ar
    59    50    52    1
    60    50    47    1
    61    50    51    1
    62    24    21    1
    63    23    22    2
    64    36    34   ar
    65    36    38   ar
    66    47    48    1
    67    47    46    1
    68    48    49    2
    69    34    33   ar
    70    20    21    1
    71    20    14   am
    72   104   105    1
    73   104   101    1
    74   105   107    1
    75    59    58   ar
    76    59    61   ar
    77    38    37   ar
    78    12    13    1
    79    58    60   ar
    80    13    14    1
    81    13    16    1
    82    21    22    1
    83    22    28   am
    84   103   102    2
    85    18    17    1
    86    18    19    1
    87    17    16    1
    88   102   101    1
    89    14    15    2
    90    33    32    1
    91    33    35   ar
    92   101   100    1
    93    61    63   ar
    94    37    35   ar
    95    28    29    1
    96    29    32    1
    97    29    30    1
    98   100    94   am
    99    60    62   ar
   100    99    97    1
   101    63    62   ar
   102    63    64    1
   103    30    31    2
   104    92    93    1
   105    94    93    1
   106    94    95    2
   107    96    97    1
   108    96    93    1
   109    96    98    1
   110    44    45    1
   111    44    43    1
   112    45    39    1
   113    43    40    1
   114    39    40    1
   115    40    41    1
   116    42    41    2
