@<TRIPOS>MOLECULE
tmp/2pvcE00.pdb
 165 161 0 0 0
SMALL
GASTEIGER

@<TRIPOS>ATOM
      1  N         31.0390   78.6740   24.8710 N.3    55  ASP55      -0.1239
      2  CA        32.0350   77.6070   24.7160 C.3    55  ASP55       0.1674
      3  C         32.5920   77.2380   26.0900 C.2    55  ASP55       0.2266
      4  O         32.6190   78.0720   26.9880 O.2    55  ASP55      -0.2867
      5  CB        33.1710   78.0690   23.8050 C.3    55  ASP55       0.1410
      6  CG        32.6790   78.5000   22.4380 C.2    55  ASP55       0.3668
      7  OD1       32.0990   77.6590   21.7220 O.co2  55  ASP55      -0.2456
      8  OD2       32.8670   79.6810   22.0790 O.co2  55  ASP55      -0.2456
      9  N         35.1140   77.3830   27.6810 N.3    57  ASP57      -0.1239
     10  CA        35.8800   78.4450   28.3280 C.3    57  ASP57       0.1674
     11  C         34.9850   79.4050   29.1050 C.2    57  ASP57       0.2266
     12  O         35.3490   79.8760   30.1850 O.2    57  ASP57      -0.2867
     13  CB        36.6740   79.2160   27.2730 C.3    57  ASP57       0.1410
     14  CG        35.8310   79.5880   26.0660 C.2    57  ASP57       0.3668
     15  OD1       36.3840   80.1640   25.1120 O.co2  57  ASP57      -0.2456
     16  OD2       34.6160   79.3020   26.0680 O.co2  57  ASP57      -0.2456
     17  N         33.0130   82.0470   27.2520 N.3    59  TYR59      -0.1227
     18  CA        32.9110   83.3170   26.5360 C.3    59  TYR59       0.1736
     19  C         32.1110   83.1770   25.2360 C.2    59  TYR59       0.2595
     20  O         31.7500   82.0730   24.8410 O.2    59  TYR59      -0.2718
     21  CB        34.3180   83.8690   26.2410 C.3    59  TYR59       0.0548
     22  CG        35.1060   84.3050   27.4720 C.ar   59  TYR59      -0.0200
     23  CD1       35.4650   83.3890   28.4650 C.ar   59  TYR59      -0.0009
     24  CD2       35.4770   85.6400   27.6490 C.ar   59  TYR59      -0.0009
     25  CE1       36.1710   83.7930   29.6060 C.ar   59  TYR59       0.0417
     26  CE2       36.1840   86.0530   28.7860 C.ar   59  TYR59       0.0417
     27  CZ        36.5250   85.1250   29.7580 C.ar   59  TYR59       0.1957
     28  OH        37.2160   85.5310   30.8780 O.3    59  TYR59      -0.2866
     29  N         31.8350   84.3010   24.5770 N.am   60  GLN60      -0.1965
     30  CA        31.0670   84.3030   23.3320 C.3    60  GLN60       0.1733
     31  C         31.5980   83.2800   22.3580 C.2    60  GLN60       0.2617
     32  O         32.6720   82.7320   22.5530 O.2    60  GLN60      -0.2715
     33  CB        31.1080   85.6780   22.6620 C.3    60  GLN60       0.0408
     34  CG        30.3930   86.7840   23.4250 C.3    60  GLN60       0.0908
     35  CD        28.8860   86.7580   23.2610 C.2    60  GLN60       0.2608
     36  OE1       28.2390   85.7320   23.4700 O.2    60  GLN60      -0.2717
     37  NE2       28.3180   87.8990   22.8920 N.am   60  GLN60      -0.0878
     38  N         30.8360   83.0300   21.3020 N.am   61  SER61      -0.1936
     39  CA        31.2340   82.0630   20.2870 C.3    61  SER61       0.2055
     40  C         31.6200   82.7880   19.0160 C.2    61  SER61       0.2643
     41  O         32.7480   82.6700   18.5520 O.2    61  SER61      -0.2714
     42  CB        30.0950   81.0850   19.9900 C.3    61  SER61       0.2130
     43  OG        30.4860   80.1250   19.0230 O.3    61  SER61      -0.2179
     44  N         30.6820   83.5290   18.4450 N.am   62  TYR62      -0.1973
     45  CA        30.9770   84.2700   17.2350 C.3    62  TYR62       0.1639
     46  C         31.1660   85.7370   17.5600 C.2    62  TYR62       0.2290
     47  O         31.3070   86.1110   18.7290 O.2    62  TYR62      -0.2864
     48  CB        29.8730   84.1010   16.1990 C.3    62  TYR62       0.0560
     49  CG        29.6990   82.6850   15.7130 C.ar   62  TYR62      -0.0198
     50  CD1       29.1470   82.4220   14.4600 C.ar   62  TYR62      -0.0009
     51  CD2       30.0600   81.6050   16.5130 C.ar   62  TYR62      -0.0009
     52  CE1       28.9630   81.1240   14.0180 C.ar   62  TYR62       0.0417
     53  CE2       29.8780   80.3030   16.0830 C.ar   62  TYR62       0.0417
     54  CZ        29.3300   80.0670   14.8370 C.ar   62  TYR62       0.1957
     55  OH        29.1560   78.7700   14.4140 O.3    62  TYR62      -0.2866
     56  N         33.8700   82.7180   13.8690 N.3    69  GLY69      -0.1210
     57  CA        34.5160   82.0020   14.9540 C.3    69  GLY69       0.1956
     58  C         35.9890   81.7790   14.6840 C.2    69  GLY69       0.2612
     59  O         36.6460   81.0150   15.3920 O.2    69  GLY69      -0.2717
     60  N         36.5050   82.4690   13.6700 N.am   70  GLU70      -0.1965
     61  CA        37.8990   82.3400   13.2570 C.3    70  GLU70       0.1733
     62  C         38.9350   83.0600   14.1130 C.2    70  GLU70       0.2617
     63  O         40.0800   82.6160   14.2100 O.2    70  GLU70      -0.2715
     64  CB        38.0640   82.8080   11.8060 C.3    70  GLU70       0.0429
     65  CG        37.1740   82.1030   10.7770 C.3    70  GLU70       0.1163
     66  CD        37.3220   80.5870   10.7730 C.2    70  GLU70       0.3649
     67  OE1       38.4720   80.0910   10.7810 O.co2  70  GLU70      -0.2457
     68  OE2       36.2790   79.8950   10.7490 O.co2  70  GLU70      -0.2457
     69  N         38.5550   84.1690   14.7300 N.am   71  THR71      -0.1937
     70  CA        39.5120   84.9100   15.5400 C.3    71  THR71       0.2028
     71  C         38.8060   86.0100   16.3270 C.2    71  THR71       0.2642
     72  O         38.1480   86.8700   15.7400 O.2    71  THR71      -0.2714
     73  CB        40.6030   85.5130   14.6280 C.3    71  THR71       0.1808
     74  OG1       41.4520   86.3760   15.3900 O.3    71  THR71      -0.2208
     75  CG2       39.9660   86.2830   13.4750 C.3    71  THR71       0.0379
     76  N         38.9470   85.9930   17.6520 N.am   72  LEU72      -0.1963
     77  CA        38.2690   86.9830   18.4880 C.3    72  LEU72       0.1728
     78  C         39.0920   87.5780   19.6270 C.2    72  LEU72       0.2616
     79  O         39.9810   86.9270   20.1760 O.2    72  LEU72      -0.2715
     80  CB        37.0050   86.3600   19.0840 C.3    72  LEU72       0.0311
     81  CG        36.0630   85.5900   18.1530 C.3    72  LEU72       0.0022
     82  CD1       35.0140   84.8690   18.9850 C.3    72  LEU72       0.0001
     83  CD2       35.4110   86.5390   17.1590 C.3    72  LEU72       0.0001
     84  N         38.7580   88.8150   19.9880 N.am   73  LEU73      -0.1963
     85  CA        39.4200   89.5350   21.0710 C.3    73  LEU73       0.1728
     86  C         38.5480   89.5650   22.3190 C.2    73  LEU73       0.2616
     87  O         37.4490   90.1120   22.3000 O.2    73  LEU73      -0.2715
     88  CB        39.7210   90.9660   20.6390 C.3    73  LEU73       0.0311
     89  CG        41.0670   91.2040   19.9590 C.3    73  LEU73       0.0022
     90  CD1       41.0820   92.5870   19.3220 C.3    73  LEU73       0.0001
     91  CD2       42.1860   91.0600   20.9880 C.3    73  LEU73       0.0001
     92  N         39.0510   88.9870   23.4040 N.am   74  ILE74      -0.1977
     93  CA        38.3270   88.9250   24.6710 C.3    74  ILE74       0.1596
     94  C         38.3240   90.2340   25.4570 C.2    74  ILE74       0.2287
     95  O         39.2510   91.0310   25.3500 O.2    74  ILE74      -0.2864
     96  CB        38.9200   87.8200   25.5780 C.3    74  ILE74       0.0276
     97  CG1       38.5250   86.4430   25.0420 C.3    74  ILE74       0.0022
     98  CG2       38.4540   88.0020   27.0200 C.3    74  ILE74       0.0022
     99  CD1       39.0560   85.2800   25.8720 C.3    74  ILE74       0.0001
    100  N         38.5360   92.2830   28.9710 N.3    76  GLY76      -0.1225
    101  CA        39.1880   92.0800   30.2500 C.3    76  GLY76       0.1811
    102  C         38.3580   92.3660   31.4820 C.2    76  GLY76       0.2280
    103  O         38.8970   92.3860   32.5870 O.2    76  GLY76      -0.2866
    104  N         32.9310   89.0310   22.5520 N.3    83  CYS83      -0.1235
    105  CA        34.1370   88.9780   21.7360 C.3    83  CYS83       0.1677
    106  C         33.9530   89.4490   20.3020 C.2    83  CYS83       0.2270
    107  O         32.9480   89.1350   19.6540 O.2    83  CYS83      -0.2867
    108  CB        34.6980   87.5570   21.7430 C.3    83  CYS83       0.0956
    109  SG        35.1710   86.9710   23.3860 S.3    83  CYS83      -0.0801
    110  N         38.9010   90.5950   14.3070 N.3    86  PHE86      -0.1241
    111  CA        40.1330   91.3140   14.0720 C.3    86  PHE86       0.1605
    112  C         39.7140   92.1990   12.9120 C.2    86  PHE86       0.2264
    113  O         39.6470   93.4220   13.0270 O.2    86  PHE86      -0.2867
    114  CB        41.2390   90.3480   13.6150 C.3    86  PHE86       0.0534
    115  CG        42.1310   89.8450   14.7260 C.ar   86  PHE86      -0.0203
    116  CD1       43.0050   88.7870   14.4960 C.ar   86  PHE86      -0.0042
    117  CD2       42.1260   90.4400   15.9830 C.ar   86  PHE86      -0.0042
    118  CE1       43.8570   88.3320   15.4960 C.ar   86  PHE86      -0.0003
    119  CE2       42.9780   89.9900   16.9900 C.ar   86  PHE86      -0.0003
    120  CZ        43.8440   88.9340   16.7450 C.ar   86  PHE86      -0.0000
    121  N         45.0680   96.9120   20.3070 N.3   101  VAL101     -0.1231
    122  CA        44.1530   96.1940   21.1890 C.3   101  VAL101      0.1692
    123  C         44.8600   94.9600   21.7470 C.2   101  VAL101      0.2592
    124  O         44.9100   94.7450   22.9610 O.2   101  VAL101     -0.2718
    125  CB        42.8970   95.7350   20.4190 C.3   101  VAL101      0.0266
    126  CG1       41.8730   95.1750   21.3790 C.3   101  VAL101      0.0020
    127  CG2       42.3210   96.8900   19.6410 C.3   101  VAL101      0.0020
    128  N         45.4080   94.1540   20.8440 N.am  102  HIS102     -0.1976
    129  CA        46.1260   92.9500   21.2270 C.3   102  HIS102      0.1656
    130  C         47.3720   93.3660   22.0070 C.2   102  HIS102      0.2291
    131  O         48.1070   92.5260   22.5270 O.2   102  HIS102     -0.2864
    132  CB        46.5160   92.1670   19.9660 C.3   102  HIS102      0.0771
    133  CG        47.0020   90.7740   20.2340 C.ar  102  HIS102      0.0820
    134  ND1       47.0820   89.8150   19.2470 N.ar  102  HIS102     -0.2267
    135  CD2       47.4270   90.1760   21.3740 C.ar  102  HIS102      0.1154
    136  CE1       47.5320   88.6860   19.7680 C.ar  102  HIS102      0.1986
    137  NE2       47.7500   88.8790   21.0560 N.ar  102  HIS102     -0.2212
    138  N         47.3370   95.4940   24.7610 N.3   104  MET104     -0.1230
    139  CA        47.0710   95.7060   26.1760 C.3   104  MET104      0.1702
    140  C         46.8380   94.4250   26.9620 C.2   104  MET104      0.2593
    141  O         46.7610   93.3350   26.3930 O.2   104  MET104     -0.2718
    142  CB        45.8560   96.6190   26.3260 C.3   104  MET104      0.0401
    143  CG        45.7850   97.6980   25.2650 C.3   104  MET104      0.0596
    144  SD        44.5120   98.9030   25.5970 S.3   104  MET104     -0.1393
    145  CE        45.4720  100.2290   26.3590 C.3   104  MET104      0.0692
    146  N         46.7410   94.5750   28.2800 N.am  105  SER105     -0.1952
    147  CA        46.4770   93.4590   29.1830 C.3   105  SER105      0.1924
    148  C         45.1810   93.7620   29.9390 C.2   105  SER105      0.2314
    149  O         44.4820   92.8500   30.3830 O.2   105  SER105     -0.2863
    150  CB        47.6290   93.2710   30.1830 C.3   105  SER105      0.2116
    151  OG        48.7820   92.7180   29.5680 O.3   105  SER105     -0.2180
    152  N         42.3070   95.3880   28.7360 N.3   107  TRP107     -0.1241
    153  CA        41.3890   95.9590   27.7620 C.3   107  TRP107      0.1605
    154  C         39.9330   95.8490   28.1510 C.2   107  TRP107      0.2264
    155  O         39.5160   94.8830   28.7900 O.2   107  TRP107     -0.2867
    156  CB        41.5520   95.3280   26.3860 C.3   107  TRP107      0.0550
    157  CG        40.7750   96.0800   25.3400 C.ar  107  TRP107      0.0003
    158  CD1       40.7970   97.4300   25.1240 C.ar  107  TRP107      0.0946
    159  CD2       39.8940   95.5340   24.3490 C.ar  107  TRP107      0.0152
    160  NE1       39.9910   97.7600   24.0600 N.ar  107  TRP107     -0.2442
    161  CE2       39.4250   96.6160   23.5630 C.ar  107  TRP107      0.0810
    162  CE3       39.4550   94.2400   24.0450 C.ar  107  TRP107      0.0012
    163  CZ2       38.5410   96.4410   22.4910 C.ar  107  TRP107      0.0191
    164  CZ3       38.5740   94.0660   22.9760 C.ar  107  TRP107      0.0001
    165  CH2       38.1290   95.1630   22.2130 C.ar  107  TRP107      0.0015
@<TRIPOS>BOND
     1    68    66   ar
     2    66    65    1
     3    66    67   ar
     4    65    64    1
     5    64    61    1
     6   112   113    2
     7   112   111    1
     8    61    60    1
     9    61    62    1
    10    75    73    1
    11   114   111    1
    12   114   115    1
    13    60    58   am
    14    56    57    1
    15    52    50   ar
    16    52    54   ar
    17   111   110    1
    18    62    63    2
    19    62    69   am
    20    55    54    1
    21    50    49   ar
    22   116   115   ar
    23   116   118   ar
    24    73    74    1
    25    73    70    1
    26    58    57    1
    27    58    59    2
    28   115   117   ar
    29    69    70    1
    30    54    53   ar
    31   118   120   ar
    32    70    71    1
    33    49    48    1
    34    49    51   ar
    35    72    71    2
    36   117   119   ar
    37    53    51   ar
    38    48    45    1
    39    71    76   am
    40   120   119   ar
    41    83    81    1
    42    45    46    1
    43    45    44    1
    44    46    47    2
    45    76    77    1
    46    81    82    1
    47    81    80    1
    48    44    40   am
    49    77    80    1
    50    77    78    1
    51    41    40    2
    52    40    39    1
    53    43    42    1
    54   134   136   ar
    55   134   133   ar
    56    90    89    1
    57    78    84   am
    58    78    79    2
    59   127   125    1
    60   107   106    2
    61   136   137   ar
    62    89    88    1
    63    89    91    1
    64   132   133    1
    65   132   129    1
    66    84    85    1
    67    42    39    1
    68   133   135   ar
    69    39    38    1
    70   106   105    1
    71   121   122    1
    72   125   122    1
    73   125   126    1
    74    88    85    1
    75   128   129    1
    76   128   123   am
    77   137   135   ar
    78    85    86    1
    79   122   123    1
    80   129   130    1
    81    38    31   am
    82     7     6   ar
    83   105   108    1
    84   105   104    1
    85   108   109    1
    86   123   124    2
    87   130   131    2
    88     8     6   ar
    89   165   163   ar
    90   165   164   ar
    91    87    86    2
    92    86    92   am
    93    31    32    2
    94    31    30    1
    95     6     5    1
    96   163   161   ar
    97    33    30    1
    98    33    34    1
    99    37    35   am
   100   164   162   ar
   101    35    34    1
   102    35    36    2
   103    30    29    1
   104    92    93    1
   105   161   160   ar
   106   161   159   ar
   107     5     2    1
   108   162   159   ar
   109   160   158   ar
   110   159   157   ar
   111    29    19   am
   112    93    94    1
   113    93    96    1
   114     2     1    1
   115     2     3    1
   116   138   139    1
   117    20    19    2
   118    97    96    1
   119    97    99    1
   120    15    14   ar
   121   158   157   ar
   122    19    18    1
   123   143   144    1
   124   143   142    1
   125   157   156    1
   126    95    94    2
   127    96    98    1
   128   144   145    1
   129    14    16   ar
   130    14    13    1
   131     3     4    2
   132   139   142    1
   133   139   140    1
   134    21    18    1
   135    21    22    1
   136   156   153    1
   137   141   140    2
   138    18    17    1
   139   140   146   am
   140    13    10    1
   141    22    24   ar
   142    22    23   ar
   143    24    26   ar
   144     9    10    1
   145   153   154    1
   146   153   152    1
   147   154   155    2
   148   146   147    1
   149    10    11    1
   150    23    25   ar
   151    26    27   ar
   152   100   101    1
   153    11    12    2
   154   147   148    1
   155   147   150    1
   156   151   150    1
   157    25    27   ar
   158    27    28    1
   159   148   149    2
   160   101   102    1
   161   102   103    2
