@<TRIPOS>MOLECULE
tmp/2pvfA00.pdb
 143 139 0 0 0
SMALL
GASTEIGER

@<TRIPOS>ATOM
      1  N         21.3550   -6.3330  -12.5800 N.3    26  PHE26      -0.1241
      2  CA        22.5020   -5.5920  -13.0890 C.3    26  PHE26       0.1605
      3  C         23.7380   -5.7660  -12.2150 C.2    26  PHE26       0.2264
      4  O         24.7190   -5.0330  -12.3680 O.2    26  PHE26      -0.2867
      5  CB        22.1520   -4.1090  -13.2050 C.3    26  PHE26       0.0534
      6  CG        21.8380   -3.3870  -11.9300 C.ar   26  PHE26      -0.0203
      7  CD1       20.5650   -3.3410  -11.3710 C.ar   26  PHE26      -0.0042
      8  CD2       22.8470   -2.6540  -11.2370 C.ar   26  PHE26      -0.0042
      9  CE1       20.2900   -2.6250  -10.2120 C.ar   26  PHE26      -0.0003
     10  CE2       22.5900   -1.9820  -10.0850 C.ar   26  PHE26      -0.0003
     11  CZ        21.3180   -1.9230   -9.5780 C.ar   26  PHE26      -0.0000
     12  N         15.1600   -4.3980    5.2680 N.3   104  ARG104     -0.1245
     13  CA        13.8240   -4.8950    4.9390 C.3   104  ARG104      0.1563
     14  C         13.6080   -6.2890    5.5260 C.2   104  ARG104      0.2260
     15  O         12.7110   -6.5010    6.3460 O.2   104  ARG104     -0.2867
     16  CB        13.6400   -4.9440    3.4170 C.3   104  ARG104      0.0307
     17  CG        12.3090   -5.5350    2.9550 C.3   104  ARG104      0.0489
     18  CD        11.2180   -4.4860    2.8590 C.3   104  ARG104      0.2205
     19  NE        10.9230   -4.1090    1.4780 N.pl3 104  ARG104     -0.0865
     20  CZ        10.0900   -3.1310    1.1270 C.cat 104  ARG104      0.5346
     21  NH1        9.4630   -2.4210    2.0560 N.pl3 104  ARG104      0.1354
     22  NH2        9.8760   -2.8640   -0.1550 N.pl3 104  ARG104      0.1354
     23  N         18.7900    6.6780   -3.5260 N.3   148  ASP148     -0.1239
     24  CA        18.1700    5.3590   -3.4790 C.3   148  ASP148      0.1674
     25  C         18.0150    4.8710   -2.0470 C.2   148  ASP148      0.2266
     26  O         18.2100    3.6990   -1.7420 O.2   148  ASP148     -0.2867
     27  CB        18.9730    4.3510   -4.3100 C.3   148  ASP148      0.1410
     28  CG        18.1150    3.2020   -4.8100 C.2   148  ASP148      0.3668
     29  OD1       18.6470    2.3200   -5.5150 O.co2 148  ASP148     -0.2456
     30  OD2       16.9030    3.1860   -4.5020 O.co2 148  ASP148     -0.2456
     31  N         15.7930   -1.7700    1.6040 N.3   152  ARG152     -0.1231
     32  CA        16.5370   -2.7680    0.8270 C.3   152  ARG152      0.1694
     33  C         17.9890   -2.3250    0.6160 C.2   152  ARG152      0.2592
     34  O         18.8530   -3.1380    0.2600 O.2   152  ARG152     -0.2718
     35  CB        15.8680   -2.9780   -0.5390 C.3   152  ARG152      0.0321
     36  CG        15.8670   -1.7230   -1.4040 C.3   152  ARG152      0.0489
     37  CD        15.3410   -1.9530   -2.8180 C.3   152  ARG152      0.2205
     38  NE        15.3280   -0.6890   -3.5510 N.pl3 152  ARG152     -0.0865
     39  CZ        14.3560    0.2140   -3.4700 C.cat 152  ARG152      0.5346
     40  NH1       13.2990   -0.0080   -2.7020 N.pl3 152  ARG152      0.1354
     41  NH2       14.4640    1.3670   -4.1180 N.pl3 152  ARG152      0.1354
     42  N         18.2460   -1.0340    0.8360 N.am  153  ASN153     -0.1974
     43  CA        19.5800   -0.4600    0.6660 C.3   153  ASN153      0.1688
     44  C         20.2720   -0.0720    1.9690 C.2   153  ASN153      0.2292
     45  O         21.1850    0.7550    1.9830 O.2   153  ASN153     -0.2864
     46  CB        19.5090    0.7360   -0.2900 C.3   153  ASN153      0.1181
     47  CG        19.3540    0.3020   -1.7260 C.2   153  ASN153      0.2629
     48  OD1       18.9660    1.0790   -2.6010 O.2   153  ASN153     -0.2716
     49  ND2       19.6720   -0.9580   -1.9790 N.am  153  ASN153     -0.0877
     50  N         24.4990    0.6560   -1.2390 N.3   166  ASP166     -0.1239
     51  CA        24.0850    0.7890   -2.6330 C.3   166  ASP166      0.1674
     52  C         24.1330    2.2200   -3.1590 C.2   166  ASP166      0.2266
     53  O         23.1100    2.9110   -3.2390 O.2   166  ASP166     -0.2867
     54  CB        22.6780    0.2220   -2.8420 C.3   166  ASP166      0.1410
     55  CG        22.3250    0.1070   -4.3070 C.2   166  ASP166      0.3668
     56  OD1       23.0540    0.6710   -5.1430 O.co2 166  ASP166     -0.2456
     57  OD2       21.3150   -0.5330   -4.6360 O.co2 166  ASP166     -0.2456
     58  N         22.9650    5.0460   -7.5000 N.3   169  LEU169     -0.1245
     59  CA        22.3760    6.2680   -8.0300 C.3   169  LEU169      0.1561
     60  C         22.9490    7.5230   -7.3760 C.2   169  LEU169      0.2260
     61  O         22.5670    8.6370   -7.7320 O.2   169  LEU169     -0.2867
     62  CB        20.8530    6.2420   -7.8440 C.3   169  LEU169      0.0270
     63  CG        20.1210    5.0870   -8.5400 C.3   169  LEU169      0.0019
     64  CD1       18.6310    5.1410   -8.2120 C.3   169  LEU169      0.0001
     65  CD2       20.3370    5.1780  -10.0450 C.3   169  LEU169      0.0001
     66  N         14.1000    7.0830  -17.2720 N.3   183  GLY183     -0.1210
     67  CA        14.7890    5.8750  -16.8610 C.3   183  GLY183      0.1956
     68  C         13.9890    5.1800  -15.7780 C.2   183  GLY183      0.2612
     69  O         12.9800    5.7190  -15.3170 O.2   183  GLY183     -0.2717
     70  N         14.4210    3.9870  -15.3840 N.am  184  ARG184     -0.1965
     71  CA        13.7330    3.2350  -14.3420 C.3   184  ARG184      0.1729
     72  C         14.2780    3.6700  -12.9860 C.2   184  ARG184      0.2616
     73  O         15.4510    3.4610  -12.6710 O.2   184  ARG184     -0.2715
     74  CB        13.9250    1.7320  -14.5610 C.3   184  ARG184      0.0348
     75  CG        13.1660    1.2040  -15.7790 C.3   184  ARG184      0.0492
     76  CD        13.4480   -0.2650  -16.0310 C.3   184  ARG184      0.2205
     77  NE        14.8570   -0.5050  -16.3280 N.pl3 184  ARG184     -0.0865
     78  CZ        15.4980   -0.0060  -17.3830 C.cat 184  ARG184      0.5346
     79  NH1       14.8550    0.7680  -18.2500 N.pl3 184  ARG184      0.1354
     80  NH2       16.7840   -0.2830  -17.5730 N.pl3 184  ARG184      0.1354
     81  N         13.4070    4.2780  -12.1880 N.am  185  LEU185     -0.1964
     82  CA        13.7880    4.8030  -10.8840 C.3   185  LEU185      0.1713
     83  C         12.9120    4.2770   -9.7460 C.2   185  LEU185      0.2458
     84  O         11.8060    3.7850   -9.9780 O.2   185  LEU185     -0.2730
     85  CB        13.7220    6.3280  -10.9490 C.3   185  LEU185      0.0310
     86  CG        14.5390    6.9180  -12.1070 C.3   185  LEU185      0.0022
     87  CD1       13.9840    8.2660  -12.5230 C.3   185  LEU185      0.0001
     88  CD2       15.9960    7.0300  -11.6870 C.3   185  LEU185      0.0001
     89  N         13.4020    4.3730   -8.4960 N.am  186  PRO186     -0.2716
     90  CA        12.6690    3.9050   -7.3110 C.3   186  PRO186      0.1536
     91  C         11.5330    4.8680   -6.9770 C.2   186  PRO186      0.2598
     92  O         11.5590    5.5480   -5.9540 O.2   186  PRO186     -0.2715
     93  CB        13.7470    3.8870   -6.2360 C.3   186  PRO186      0.0310
     94  CG        14.5830    5.0900   -6.6040 C.3   186  PRO186      0.0237
     95  CD        14.7050    4.9550   -8.1160 C.3   186  PRO186      0.0939
     96  N         10.5360    4.9050   -7.8510 N.am  187  VAL187     -0.1964
     97  CA         9.4020    5.8100   -7.7180 C.3   187  VAL187      0.1727
     98  C          8.6770    5.9420   -6.3770 C.2   187  VAL187      0.2616
     99  O          8.3380    7.0510   -5.9830 O.2   187  VAL187     -0.2715
    100  CB         8.3530    5.5130   -8.8090 C.3   187  VAL187      0.0290
    101  CG1        8.9440    5.8160  -10.1720 C.3   187  VAL187      0.0023
    102  CG2        7.9140    4.0610   -8.7360 C.3   187  VAL187      0.0023
    103  N          8.4340    4.8400   -5.6760 N.am  188  LYS188     -0.1963
    104  CA         7.7180    4.9220   -4.4010 C.3   188  LYS188      0.1728
    105  C          8.5220    5.5610   -3.2710 C.2   188  LYS188      0.2616
    106  O          7.9830    5.8460   -2.2040 O.2   188  LYS188     -0.2715
    107  CB         7.2290    3.5380   -3.9670 C.3   188  LYS188      0.0311
    108  CG         6.1750    2.9520   -4.9020 C.3   188  LYS188      0.0038
    109  CD         5.5060    1.7240   -4.3070 C.3   188  LYS188      0.0206
    110  CE         4.4300    1.1890   -5.2500 C.3   188  LYS188      0.1093
    111  NZ         3.5970    0.1300   -4.6160 N.3   188  LYS188     -0.1314
    112  N          9.8110    5.7810   -3.5100 N.am  189  TRP189     -0.1974
    113  CA        10.6830    6.3960   -2.5060 C.3   189  TRP189      0.1640
    114  C         11.0740    7.8000   -2.9490 C.2   189  TRP189      0.2290
    115  O         11.8120    8.5020   -2.2550 O.2   189  TRP189     -0.2864
    116  CB        11.9560    5.5530   -2.3220 C.3   189  TRP189      0.0576
    117  CG        11.7620    4.3120   -1.5050 C.ar  189  TRP189      0.0006
    118  CD1       12.0510    4.1470   -0.1780 C.ar  189  TRP189      0.0946
    119  CD2       11.1950    3.0710   -1.9480 C.ar  189  TRP189      0.0152
    120  NE1       11.6990    2.8830    0.2300 N.ar  189  TRP189     -0.2442
    121  CE2       11.1700    2.2030   -0.8370 C.ar  189  TRP189      0.0810
    122  CE3       10.7060    2.6090   -3.1800 C.ar  189  TRP189      0.0012
    123  CZ2       10.6730    0.8970   -0.9160 C.ar  189  TRP189      0.0191
    124  CZ3       10.2110    1.3050   -3.2560 C.ar  189  TRP189      0.0001
    125  CH2       10.1980    0.4690   -2.1330 C.ar  189  TRP189      0.0015
    126  N          1.7010    1.3000  -10.1830 N.3   229  VAL229     -0.1245
    127  CA         2.5620    2.2830  -10.8310 C.3   229  VAL229      0.1561
    128  C          1.8750    3.6250  -11.0810 C.2   229  VAL229      0.2260
    129  O          2.0380    4.5740  -10.3090 O.2   229  VAL229     -0.2867
    130  CB         3.0770    1.7470  -12.1880 C.3   229  VAL229      0.0252
    131  CG1        4.1180    2.6960  -12.7640 C.3   229  VAL229      0.0019
    132  CG2        3.6500    0.3480  -12.0140 C.3   229  VAL229      0.0019
    133  N          1.4240    7.7850   -9.0930 N.3   233  PHE233     -0.1241
    134  CA         1.7180    9.0730   -9.7080 C.3   233  PHE233      0.1605
    135  C          0.5300   10.0170   -9.5680 C.2   233  PHE233      0.2264
    136  O          0.6950   11.2180   -9.3480 O.2   233  PHE233     -0.2867
    137  CB         2.0590    8.8800  -11.1850 C.3   233  PHE233      0.0534
    138  CG         3.3040    8.0710  -11.4180 C.ar  233  PHE233     -0.0203
    139  CD1        4.5460    8.5460  -11.0050 C.ar  233  PHE233     -0.0042
    140  CD2        3.2380    6.8390  -12.0620 C.ar  233  PHE233     -0.0042
    141  CE1        5.7070    7.8050  -11.2320 C.ar  233  PHE233     -0.0003
    142  CE2        4.3950    6.0900  -12.2940 C.ar  233  PHE233     -0.0003
    143  CZ         5.6300    6.5750  -11.8780 C.ar  233  PHE233     -0.0000
@<TRIPOS>BOND
     1    79    78    1
     2    80    78    1
     3    78    77    2
     4    66    67    1
     5    67    68    1
     6    77    76    1
     7    76    75    1
     8    75    74    1
     9    68    70   am
    10    68    69    2
    11    70    71    1
    12    74    71    1
    13    71    72    1
    14     5     2    1
    15     5     6    1
    16     2     1    1
    17     2     3    1
    18    72    73    2
    19    72    81   am
    20   131   130    1
    21    87    86    1
    22     4     3    2
    23   142   140   ar
    24   142   143   ar
    25   130   132    1
    26   130   127    1
    27    81    82    1
    28    86    88    1
    29    86    85    1
    30   140   138   ar
    31     6     7   ar
    32     6     8   ar
    33   143   141   ar
    34   138   137    1
    35   138   139   ar
    36     7     9   ar
    37     8    10   ar
    38   141   139   ar
    39   137   134    1
    40   128   127    1
    41   128   129    2
    42    85    82    1
    43    82    83    1
    44   127   126    1
    45     9    11   ar
    46   101   100    1
    47    10    11   ar
    48    65    63    1
    49    84    83    2
    50    83    89   am
    51   134   135    1
    52   134   133    1
    53   135   136    2
    54   100   102    1
    55   100    97    1
    56    63    64    1
    57    63    62    1
    58    89    95    1
    59    89    90    1
    60    95    94    1
    61    59    62    1
    62    59    58    1
    63    59    60    1
    64    96    97    1
    65    96    91   am
    66    61    60    2
    67    97    98    1
    68    90    91    1
    69    90    93    1
    70    91    92    2
    71    94    93    1
    72    98    99    2
    73    98   103   am
    74   103   104    1
    75    29    28   ar
    76   110   111    1
    77   110   109    1
    78    56    55   ar
    79   108   109    1
    80   108   107    1
    81    28    30   ar
    82    28    27    1
    83    57    55   ar
    84   104   107    1
    85   104   105    1
    86    27    24    1
    87    55    54    1
    88    41    39    1
    89    38    39    2
    90    38    37    1
    91    23    24    1
    92   112   105   am
    93   112   113    1
    94    24    25    1
    95    39    40    1
    96   105   106    2
    97   124   122   ar
    98   124   125   ar
    99    53    52    2
   100   122   119   ar
   101    52    51    1
   102   114   113    1
   103   114   115    2
   104    54    51    1
   105    37    36    1
   106    51    50    1
   107    48    47    2
   108   113   116    1
   109   116   117    1
   110   125   123   ar
   111    25    26    2
   112    49    47   am
   113   119   117   ar
   114   119   121   ar
   115    47    46    1
   116   117   118   ar
   117    36    35    1
   118   123   121   ar
   119   121   120   ar
   120    35    32    1
   121    46    43    1
   122   118   120   ar
   123    22    20    1
   124    34    33    2
   125    33    32    1
   126    33    42   am
   127    43    42    1
   128    43    44    1
   129    32    31    1
   130    20    19    2
   131    20    21    1
   132    19    18    1
   133    44    45    2
   134    18    17    1
   135    17    16    1
   136    16    13    1
   137    13    12    1
   138    13    14    1
   139    14    15    2
