@<TRIPOS>MOLECULE
tmp/2pvhA00.pdb
 160 153 0 0 0
SMALL
GASTEIGER

@<TRIPOS>ATOM
      1  N         27.6510   13.5100   28.2330 N.3    38  ARG38      -0.1245
      2  CA        27.6220   12.1830   28.8360 C.3    38  ARG38       0.1563
      3  C         27.5390   11.0900   27.7800 C.2    38  ARG38       0.2260
      4  O         26.8980   11.2610   26.7440 O.2    38  ARG38      -0.2867
      5  CB        26.4230   12.0630   29.7850 C.3    38  ARG38       0.0307
      6  CG        25.1090   12.5550   29.1910 C.3    38  ARG38       0.0489
      7  CD        23.9830   12.5430   30.2240 C.3    38  ARG38       0.2205
      8  NE        23.3560   11.2310   30.3610 N.pl3  38  ARG38      -0.0865
      9  CZ        22.4950   10.7180   29.4840 C.cat  38  ARG38       0.5346
     10  NH1       22.1550   11.4090   28.4030 N.pl3  38  ARG38       0.1354
     11  NH2       21.9710    9.5150   29.6890 N.pl3  38  ARG38       0.1354
     12  N         26.2100    7.8960   26.0580 N.3    40  VAL40      -0.1231
     13  CA        24.8750    7.3120   26.0360 C.3    40  VAL40       0.1692
     14  C         24.8230    6.0090   25.2510 C.2    40  VAL40       0.2593
     15  O         23.8760    5.2360   25.3850 O.2    40  VAL40      -0.2718
     16  CB        23.8400    8.2900   25.4280 C.3    40  VAL40       0.0266
     17  CG1       23.7090    9.5190   26.3090 C.3    40  VAL40       0.0020
     18  CG2       24.2560    8.6880   24.0190 C.3    40  VAL40       0.0020
     19  N         25.8440    5.7610   24.4400 N.am   41  GLY41      -0.1942
     20  CA        25.8690    4.5460   23.6490 C.3    41  GLY41       0.2014
     21  C         27.2510    4.1910   23.1530 C.2    41  GLY41       0.2638
     22  O         28.1740    5.0030   23.2050 O.2    41  GLY41      -0.2714
     23  N         27.3910    2.9680   22.6620 N.am   42  ARG42      -0.1977
     24  CA        28.6660    2.4880   22.1570 C.3    42  ARG42       0.1597
     25  C         28.4490    1.3010   21.2230 C.2    42  ARG42       0.2287
     26  O         27.4310    0.6150   21.3010 O.2    42  ARG42      -0.2864
     27  CB        29.5680    2.0910   23.3320 C.3    42  ARG42       0.0334
     28  CG        28.9920    1.0000   24.2290 C.3    42  ARG42       0.0492
     29  CD        29.3520   -0.3850   23.7130 C.3    42  ARG42       0.2205
     30  NE        28.7060   -1.4590   24.4660 N.pl3  42  ARG42      -0.0865
     31  CZ        27.4690   -1.8970   24.2400 C.cat  42  ARG42       0.5346
     32  NH1       26.7290   -1.3560   23.2780 N.pl3  42  ARG42       0.1354
     33  NH2       26.9760   -2.8870   24.9730 N.pl3  42  ARG42       0.1354
     34  N         28.9730    6.9370   21.2810 N.3    48  VAL48      -0.1245
     35  CA        27.9890    8.0030   21.1820 C.3    48  VAL48       0.1561
     36  C         27.8010    8.7400   22.5040 C.2    48  VAL48       0.2260
     37  O         27.7220    8.1190   23.5590 O.2    48  VAL48      -0.2867
     38  CB        26.6360    7.4260   20.7160 C.3    48  VAL48       0.0252
     39  CG1       25.6240    8.5440   20.5040 C.3    48  VAL48       0.0019
     40  CG2       26.8350    6.6370   19.4300 C.3    48  VAL48       0.0019
     41  N         23.7990   15.0610   19.4530 N.3    61  ILE61      -0.1245
     42  CA        24.3800   13.7410   19.6300 C.3    61  ILE61       0.1561
     43  C         25.7500   13.7640   18.9800 C.2    61  ILE61       0.2260
     44  O         25.8970   14.1970   17.8380 O.2    61  ILE61      -0.2867
     45  CB        23.5230   12.6520   18.9750 C.3    61  ILE61       0.0252
     46  CG1       22.2370   12.4540   19.7810 C.3    61  ILE61       0.0019
     47  CG2       24.3080   11.3540   18.8950 C.3    61  ILE61       0.0019
     48  CD1       22.4640   11.8540   21.1630 C.3    61  ILE61       0.0001
     49  N         17.2850   10.2040   11.0770 N.3    89  VAL89      -0.1245
     50  CA        18.1490   10.9560   11.9750 C.3    89  VAL89       0.1561
     51  C         18.7240   12.1170   11.1520 C.2    89  VAL89       0.2260
     52  O         19.0080   11.9600    9.9670 O.2    89  VAL89      -0.2867
     53  CB        19.2910   10.0590   12.5300 C.3    89  VAL89       0.0252
     54  CG1       20.3080    9.7520   11.4350 C.3    89  VAL89       0.0019
     55  CG2       19.9480   10.7330   13.7280 C.3    89  VAL89       0.0019
     56  N         24.6550   15.0350   15.3610 N.3   107  PHE107     -0.1227
     57  CA        23.2560   14.7800   15.0220 C.3   107  PHE107      0.1736
     58  C         22.2930   15.5180   15.9500 C.2   107  PHE107      0.2595
     59  O         22.6220   15.8110   17.1000 O.2   107  PHE107     -0.2718
     60  CB        22.9390   13.2790   15.1450 C.3   107  PHE107      0.0547
     61  CG        23.7340   12.3920   14.2270 C.ar  107  PHE107     -0.0202
     62  CD1       23.3870   12.2630   12.8810 C.ar  107  PHE107     -0.0042
     63  CD2       24.8010   11.6440   14.7190 C.ar  107  PHE107     -0.0042
     64  CE1       24.0880   11.3980   12.0380 C.ar  107  PHE107     -0.0003
     65  CE2       25.5140   10.7720   13.8850 C.ar  107  PHE107     -0.0003
     66  CZ        25.1560   10.6490   12.5400 C.ar  107  PHE107     -0.0000
     67  N         21.0930   15.7930   15.4470 N.am  108  GLU108     -0.1965
     68  CA        20.0610   16.4480   16.2400 C.3   108  GLU108      0.1733
     69  C         19.8260   15.4620   17.3870 C.2   108  GLU108      0.2616
     70  O         20.0030   14.2590   17.2140 O.2   108  GLU108     -0.2715
     71  CB        18.7920   16.6290   15.3920 C.3   108  GLU108      0.0429
     72  CG        17.8420   17.7400   15.8620 C.3   108  GLU108      0.1163
     73  CD        16.7760   18.0970   14.8150 C.2   108  GLU108      0.3649
     74  OE1       15.9120   17.2410   14.5090 O.co2 108  GLU108     -0.2457
     75  OE2       16.8090   19.2380   14.2950 O.co2 108  GLU108     -0.2457
     76  N         19.4380   15.9570   18.5550 N.am  109  TYR109     -0.1960
     77  CA        19.2350   15.0780   19.7070 C.3   109  TYR109      0.1771
     78  C         17.8950   14.3420   19.7410 C.2   109  TYR109      0.2619
     79  O         16.8790   14.8430   19.2630 O.2   109  TYR109     -0.2715
     80  CB        19.3870   15.8840   21.0020 C.3   109  TYR109      0.0574
     81  CG        19.2830   15.0640   22.2720 C.ar  109  TYR109     -0.0198
     82  CD1       20.3240   14.2280   22.6720 C.ar  109  TYR109     -0.0009
     83  CD2       18.1490   15.1340   23.0790 C.ar  109  TYR109     -0.0009
     84  CE1       20.2440   13.4820   23.8470 C.ar  109  TYR109      0.0417
     85  CE2       18.0560   14.3890   24.2650 C.ar  109  TYR109      0.0417
     86  CZ        19.1100   13.5670   24.6420 C.ar  109  TYR109      0.1957
     87  OH        19.0410   12.8400   25.8140 O.3   109  TYR109     -0.2866
     88  N         17.9140   13.1430   20.3130 N.am  110  VAL110     -0.1963
     89  CA        16.7090   12.3390   20.4720 C.3   110  VAL110      0.1727
     90  C         16.8110   11.6550   21.8250 C.2   110  VAL110      0.2616
     91  O         17.7640   10.9290   22.0890 O.2   110  VAL110     -0.2715
     92  CB        16.5640   11.2610   19.3760 C.3   110  VAL110      0.0290
     93  CG1       15.3440   10.3960   19.6660 C.3   110  VAL110      0.0023
     94  CG2       16.4230   11.9170   18.0080 C.3   110  VAL110      0.0023
     95  N         15.8380   11.9040   22.6910 N.am  111  ASN111     -0.1958
     96  CA        15.8460   11.3050   24.0130 C.3   111  ASN111      0.1819
     97  C         15.2430    9.9080   23.9550 C.2   111  ASN111      0.2621
     98  O         14.0500    9.7230   24.1900 O.2   111  ASN111     -0.2715
     99  CB        15.0620   12.1780   24.9930 C.3   111  ASN111      0.1195
    100  CG        15.1760   11.6880   26.4120 C.2   111  ASN111      0.2630
    101  OD1       16.2770   11.4720   26.9140 O.2   111  ASN111     -0.2716
    102  ND2       14.0410   11.5090   27.0720 N.am  111  ASN111     -0.0877
    103  N         16.0850    8.9290   23.6490 N.am  112  ASN112     -0.1972
    104  CA        15.6590    7.5380   23.5330 C.3   112  ASN112      0.1688
    105  C         15.4740    6.8090   24.8610 C.2   112  ASN112      0.2292
    106  O         15.9720    7.2430   25.9000 O.2   112  ASN112     -0.2864
    107  CB        16.6770    6.7670   22.6870 C.3   112  ASN112      0.1181
    108  CG        16.3740    5.2900   22.6190 C.2   112  ASN112      0.2629
    109  OD1       15.4090    4.8730   21.9830 O.2   112  ASN112     -0.2716
    110  ND2       17.1940    4.4850   23.2870 N.am  112  ASN112     -0.0877
    111  N         15.9620    2.9010   26.2390 N.3   114  ASP114     -0.1239
    112  CA        16.4400    1.5470   25.9600 C.3   114  ASP114      0.1674
    113  C         15.2770    0.6070   25.6470 C.2   114  ASP114      0.2266
    114  O         14.3530    0.4650   26.4450 O.2   114  ASP114     -0.2867
    115  CB        17.2370    1.0150   27.1520 C.3   114  ASP114      0.1410
    116  CG        17.7760   -0.3800   26.9150 C.2   114  ASP114      0.3668
    117  OD1       18.3960   -0.6070   25.8510 O.co2 114  ASP114     -0.2456
    118  OD2       17.5870   -1.2490   27.7960 O.co2 114  ASP114     -0.2456
    119  N         18.1820   -1.3360   18.4820 N.3   154  HIS154     -0.1226
    120  CA        19.2620   -0.4270   18.8600 C.3   154  HIS154      0.1752
    121  C         19.4650    0.7370   17.8900 C.2   154  HIS154      0.2596
    122  O         20.0710    1.7550   18.2500 O.2   154  HIS154     -0.2718
    123  CB        20.5840   -1.2030   18.9800 C.3   154  HIS154      0.0759
    124  CG        20.4130   -2.6360   19.3900 C.ar  154  HIS154      0.0818
    125  ND1       21.0960   -3.1940   20.4520 N.ar  154  HIS154     -0.2268
    126  CD2       19.6550   -3.6310   18.8650 C.ar  154  HIS154      0.1154
    127  CE1       20.7660   -4.4700   20.5620 C.ar  154  HIS154      0.1986
    128  NE2       19.8930   -4.7600   19.6110 N.ar  154  HIS154     -0.2212
    129  N         18.9860    0.5910   16.6590 N.am  155  ASN155     -0.1974
    130  CA        19.1490    1.6540   15.6730 C.3   155  ASN155      0.1688
    131  C         17.8620    2.4190   15.4330 C.2   155  ASN155      0.2292
    132  O         17.7460    3.2120   14.4870 O.2   155  ASN155     -0.2864
    133  CB        19.6910    1.1000   14.3610 C.3   155  ASN155      0.1181
    134  CG        21.1430    0.6960   14.4740 C.2   155  ASN155      0.2629
    135  OD1       21.8670    1.1890   15.3450 O.2   155  ASN155     -0.2716
    136  ND2       21.5860   -0.1880   13.5900 N.am  155  ASN155     -0.0877
    137  N         15.7180    4.9210   17.4980 N.3   157  MET157     -0.1245
    138  CA        15.6130    5.7780   18.6650 C.3   157  MET157      0.1570
    139  C         14.1550    6.1330   18.8740 C.2   157  MET157      0.2261
    140  O         13.4800    6.5840   17.9520 O.2   157  MET157     -0.2867
    141  CB        16.4260    7.0540   18.4590 C.3   157  MET157      0.0387
    142  CG        17.9220    6.8220   18.3240 C.3   157  MET157      0.0595
    143  SD        18.6410    6.1410   19.8250 S.3   157  MET157     -0.1393
    144  CE        18.3930    4.3930   19.6180 C.3   157  MET157      0.0692
    145  N         18.4340    5.4380   13.0580 N.3   168  ILE168     -0.1231
    146  CA        19.8210    5.8890   13.1310 C.3   168  ILE168      0.1692
    147  C         20.8630    4.8880   12.6390 C.2   168  ILE168      0.2592
    148  O         20.5430    3.7780   12.2020 O.2   168  ILE168     -0.2718
    149  CB        20.2200    6.2540   14.5780 C.3   168  ILE168      0.0266
    150  CG1       20.2500    4.9870   15.4360 C.3   168  ILE168      0.0019
    151  CG2       19.2330    7.2670   15.1630 C.3   168  ILE168      0.0020
    152  CD1       20.8930    5.1780   16.8160 C.3   168  ILE168      0.0001
    153  N         22.1160    5.3240   12.7570 N.am  169  ASP169     -0.1974
    154  CA        23.3160    4.5880   12.3870 C.3   169  ASP169      0.1709
    155  C         23.2960    3.9960   10.9860 C.2   169  ASP169      0.2293
    156  O         23.0650    2.7940   10.7890 O.2   169  ASP169     -0.2864
    157  CB        23.6120    3.4930   13.4070 C.3   169  ASP169      0.1436
    158  CG        25.0840    3.1300   13.4490 C.2   169  ASP169      0.3671
    159  OD1       25.7540    3.2280   12.3930 O.co2 169  ASP169     -0.2456
    160  OD2       25.5740    2.7460   14.5350 O.co2 169  ASP169     -0.2456
@<TRIPOS>BOND
     1    52    51    2
     2   156   155    2
     3   155   154    1
     4    49    50    1
     5    51    50    1
     6    54    53    1
     7    50    53    1
     8    64    66   ar
     9    64    62   ar
    10   148   147    2
    11   154   153    1
    12   154   157    1
    13   159   158   ar
    14    53    55    1
    15    66    65   ar
    16   147   153   am
    17   147   146    1
    18    62    61   ar
    19   145   146    1
    20   146   149    1
    21   157   158    1
    22   158   160   ar
    23   136   134   am
    24    65    63   ar
    25    61    63   ar
    26    61    60    1
    27    75    73   ar
    28   133   134    1
    29   133   130    1
    30   134   135    2
    31   132   131    2
    32    74    73   ar
    33   149   151    1
    34   149   150    1
    35    73    72    1
    36    57    60    1
    37    57    56    1
    38    57    58    1
    39    71    72    1
    40    71    68    1
    41   131   130    1
    42   150   152    1
    43    67    58   am
    44    67    68    1
    45   130   129    1
    46    58    59    2
    47    68    69    1
    48   129   121   am
    49    70    69    2
    50    69    76   am
    51   137   138    1
    52    44    43    2
    53   121   122    2
    54   121   120    1
    55   140   139    2
    56    94    92    1
    57   142   141    1
    58   142   143    1
    59   141   138    1
    60   119   120    1
    61    76    77    1
    62   138   139    1
    63   120   123    1
    64   126   124   ar
    65   126   128   ar
    66    47    45    1
    67    45    42    1
    68    45    46    1
    69    43    42    1
    70   123   124    1
    71    79    78    2
    72    92    93    1
    73    92    89    1
    74   124   125   ar
    75    40    38    1
    76    41    42    1
    77   128   127   ar
    78   144   143    1
    79    77    78    1
    80    77    80    1
    81    78    88   am
    82    46    48    1
    83    88    89    1
    84   125   127   ar
    85    89    90    1
    86    39    38    1
    87    38    35    1
    88    80    81    1
    89    35    34    1
    90    35    36    1
    91    25    26    2
    92    25    24    1
    93    90    91    2
    94    90    95   am
    95   109   108    2
    96    24    23    1
    97    24    27    1
    98    81    82   ar
    99    81    83   ar
   100    36    37    2
   101   108   107    1
   102   108   110   am
   103    23    21   am
   104    82    84   ar
   105   107   104    1
   106    95    96    1
   107    83    85   ar
   108    21    22    2
   109    21    20    1
   110    32    31    1
   111    27    28    1
   112   104   103    1
   113   104   105    1
   114   103    97   am
   115    20    19    1
   116    29    28    1
   117    29    30    1
   118    84    86   ar
   119    97    96    1
   120    97    98    2
   121    96    99    1
   122    18    16    1
   123    31    30    2
   124    31    33    1
   125    85    86   ar
   126    19    14   am
   127    86    87    1
   128   105   106    2
   129    99   100    1
   130    14    15    2
   131    14    13    1
   132    16    13    1
   133    16    17    1
   134   113   112    1
   135   113   114    2
   136   117   116   ar
   137   112   111    1
   138   112   115    1
   139    13    12    1
   140   100   101    2
   141   100   102   am
   142     4     3    2
   143   116   115    1
   144   116   118   ar
   145     3     2    1
   146     1     2    1
   147    10     9    1
   148     2     5    1
   149     6     5    1
   150     6     7    1
   151     9    11    1
   152     9     8    2
   153     7     8    1
