@<TRIPOS>MOLECULE
tmp/2pvkA00.pdb
 168 162 0 0 0
SMALL
GASTEIGER

@<TRIPOS>ATOM
      1  N         27.9190   13.1060   28.7780 N.3    38  ARG38      -0.1245
      2  CA        27.9170   11.7750   29.3750 C.3    38  ARG38       0.1563
      3  C         27.9190   10.7110   28.2850 C.2    38  ARG38       0.2260
      4  O         27.3790   10.9230   27.2010 O.2    38  ARG38      -0.2867
      5  CB        26.6790   11.5760   30.2630 C.3    38  ARG38       0.0307
      6  CG        25.3570   11.5600   29.5070 C.3    38  ARG38       0.0489
      7  CD        24.2250   10.9750   30.3470 C.3    38  ARG38       0.2205
      8  NE        22.9790   10.8690   29.5890 N.pl3  38  ARG38      -0.0865
      9  CZ        21.8970   10.2160   30.0080 C.cat  38  ARG38       0.5346
     10  NH1       21.9010    9.6040   31.1860 N.pl3  38  ARG38       0.1354
     11  NH2       20.8100   10.1720   29.2490 N.pl3  38  ARG38       0.1354
     12  N         26.6750    7.3840   26.5420 N.3    40  VAL40      -0.1231
     13  CA        25.4070    6.6650   26.5240 C.3    40  VAL40       0.1692
     14  C         25.5100    5.3050   25.8300 C.2    40  VAL40       0.2592
     15  O         24.5800    4.4970   25.8850 O.2    40  VAL40      -0.2718
     16  CB        24.2980    7.4960   25.8430 C.3    40  VAL40       0.0266
     17  CG1       23.9270    8.6740   26.7260 C.3    40  VAL40       0.0020
     18  CG2       24.7640    7.9810   24.4800 C.3    40  VAL40       0.0020
     19  N         26.6420    5.0530   25.1830 N.am   41  GLY41      -0.1957
     20  CA        26.8220    3.7850   24.5030 C.3    41  GLY41       0.1869
     21  C         28.2070    3.5960   23.9210 C.2    41  GLY41       0.2309
     22  O         29.0230    4.5190   23.9010 O.2    41  GLY41      -0.2863
     23  N         29.6940    6.5270   21.9970 N.3    48  VAL48      -0.1245
     24  CA        28.5980    7.4770   21.8590 C.3    48  VAL48       0.1561
     25  C         28.3110    8.2790   23.1220 C.2    48  VAL48       0.2260
     26  O         28.1250    7.7180   24.2040 O.2    48  VAL48      -0.2867
     27  CB        27.3090    6.7440   21.4230 C.3    48  VAL48       0.0252
     28  CG1       26.2560    7.7500   21.0120 C.3    48  VAL48       0.0019
     29  CG2       27.6240    5.7760   20.2790 C.3    48  VAL48       0.0019
     30  N         24.0420   14.2140   19.9440 N.3    61  ILE61      -0.1245
     31  CA        24.6890   12.9290   20.1440 C.3    61  ILE61       0.1561
     32  C         26.0360   12.9900   19.4470 C.2    61  ILE61       0.2260
     33  O         26.1260   13.3410   18.2660 O.2    61  ILE61      -0.2867
     34  CB        23.8390   11.7700   19.5550 C.3    61  ILE61       0.0252
     35  CG1       22.7020   11.4220   20.5180 C.3    61  ILE61       0.0019
     36  CG2       24.7120   10.5360   19.3020 C.3    61  ILE61       0.0019
     37  CD1       23.1650   10.8530   21.8600 C.3    61  ILE61       0.0001
     38  N         29.2390   10.8780   18.2700 N.3    63  LYS63      -0.1245
     39  CA        29.7700    9.5490   18.0220 C.3    63  LYS63       0.1561
     40  C         31.2290    9.7000   17.6170 C.2    63  LYS63       0.2260
     41  O         31.5390   10.1810   16.5210 O.2    63  LYS63      -0.2867
     42  CB        28.9690    8.8330   16.9190 C.3    63  LYS63       0.0271
     43  CG        27.4980    8.5960   17.2750 C.3    63  LYS63       0.0035
     44  CD        26.8400    7.5350   16.3800 C.3    63  LYS63       0.0206
     45  CE        25.3340    7.3930   16.6870 C.3    63  LYS63       0.1093
     46  NZ        24.9370    6.0930   17.3340 N.3    63  LYS63      -0.1314
     47  N         17.3140    9.9920   11.1030 N.3    89  VAL89      -0.1245
     48  CA        18.1660   10.7560   12.0080 C.3    89  VAL89       0.1561
     49  C         18.9070   11.8490   11.2420 C.2    89  VAL89       0.2260
     50  O         19.4180   11.6240   10.1410 O.2    89  VAL89      -0.2867
     51  CB        19.1960    9.8460   12.7320 C.3    89  VAL89       0.0252
     52  CG1       20.3460    9.4880   11.7990 C.3    89  VAL89       0.0019
     53  CG2       19.7160   10.5410   13.9940 C.3    89  VAL89       0.0019
     54  N         24.9760   14.0610   15.7610 N.3   107  PHE107     -0.1227
     55  CA        23.5810   13.7970   15.4090 C.3   107  PHE107      0.1736
     56  C         22.6090   14.4770   16.3720 C.2   107  PHE107      0.2595
     57  O         22.9940   14.9330   17.4550 O.2   107  PHE107     -0.2718
     58  CB        23.2950   12.2890   15.4440 C.3   107  PHE107      0.0547
     59  CG        24.1160   11.4810   14.4780 C.ar  107  PHE107     -0.0202
     60  CD1       23.7100   11.3290   13.1540 C.ar  107  PHE107     -0.0042
     61  CD2       25.2980   10.8740   14.8920 C.ar  107  PHE107     -0.0042
     62  CE1       24.4740   10.5800   12.2550 C.ar  107  PHE107     -0.0003
     63  CE2       26.0660   10.1260   14.0040 C.ar  107  PHE107     -0.0003
     64  CZ        25.6500    9.9810   12.6800 C.ar  107  PHE107     -0.0000
     65  N         21.3430   14.5140   15.9750 N.am  108  GLU108     -0.1965
     66  CA        20.2960   15.0910   16.8030 C.3   108  GLU108      0.1733
     67  C         20.1460   14.1600   18.0040 C.2   108  GLU108      0.2616
     68  O         20.4250   12.9630   17.9140 O.2   108  GLU108     -0.2715
     69  CB        18.9710   15.1480   16.0290 C.3   108  GLU108      0.0429
     70  CG        18.4220   13.7710   15.6610 C.3   108  GLU108      0.1163
     71  CD        17.0750   13.8160   14.9620 C.2   108  GLU108      0.3649
     72  OE1       17.0210   13.4880   13.7590 O.co2 108  GLU108     -0.2457
     73  OE2       16.0680   14.1690   15.6130 O.co2 108  GLU108     -0.2457
     74  N         19.6990   14.7070   19.1230 N.am  109  TYR109     -0.1960
     75  CA        19.5210   13.9180   20.3300 C.3   109  TYR109      0.1771
     76  C         18.1120   13.3440   20.4340 C.2   109  TYR109      0.2619
     77  O         17.1340   14.0370   20.1620 O.2   109  TYR109     -0.2715
     78  CB        19.7920   14.7950   21.5640 C.3   109  TYR109      0.0574
     79  CG        19.6240   14.0760   22.8800 C.ar  109  TYR109     -0.0198
     80  CD1       20.6600   13.3160   23.4170 C.ar  109  TYR109     -0.0009
     81  CD2       18.4190   14.1380   23.5800 C.ar  109  TYR109     -0.0009
     82  CE1       20.5010   12.6280   24.6220 C.ar  109  TYR109      0.0417
     83  CE2       18.2500   13.4550   24.7880 C.ar  109  TYR109      0.0417
     84  CZ        19.2940   12.7020   25.2980 C.ar  109  TYR109      0.1957
     85  OH        19.1260   11.9940   26.4640 O.3   109  TYR109     -0.2866
     86  N         18.0180   12.0750   20.8210 N.am  110  VAL110     -0.1963
     87  CA        16.7340   11.4250   21.0290 C.3   110  VAL110      0.1727
     88  C         16.7970   10.7370   22.3930 C.2   110  VAL110      0.2616
     89  O         17.6450    9.8740   22.6220 O.2   110  VAL110     -0.2715
     90  CB        16.4260   10.3520   19.9560 C.3   110  VAL110      0.0290
     91  CG1       15.1090    9.6520   20.2940 C.3   110  VAL110      0.0023
     92  CG2       16.3490   10.9980   18.5670 C.3   110  VAL110      0.0023
     93  N         15.8980   11.1160   23.2950 N.am  111  ASN111     -0.1958
     94  CA        15.8680   10.5330   24.6270 C.3   111  ASN111      0.1819
     95  C         15.3360    9.1060   24.5710 C.2   111  ASN111      0.2621
     96  O         14.1990    8.8280   24.9490 O.2   111  ASN111     -0.2715
     97  CB        14.9960   11.3820   25.5510 C.3   111  ASN111      0.1195
     98  CG        15.2620   11.0930   26.9990 C.2   111  ASN111      0.2630
     99  OD1       14.3700   10.6750   27.7400 O.2   111  ASN111     -0.2716
    100  ND2       16.5040   11.3050   27.4180 N.am  111  ASN111     -0.0877
    101  N         16.1930    8.1990   24.1230 N.am  112  ASN112     -0.1972
    102  CA        15.8430    6.7970   23.9530 C.3   112  ASN112      0.1688
    103  C         15.7210    5.9590   25.2190 C.2   112  ASN112      0.2292
    104  O         16.4940    6.1170   26.1610 O.2   112  ASN112     -0.2864
    105  CB        16.8840    6.1460   23.0310 C.3   112  ASN112      0.1181
    106  CG        16.5100    4.7360   22.6220 C.2   112  ASN112      0.2629
    107  OD1       15.4900    4.5210   21.9830 O.2   112  ASN112     -0.2716
    108  ND2       17.3420    3.7690   22.9850 N.am  112  ASN112     -0.0877
    109  N         16.0340    2.1900   26.3490 N.3   114  ASP114     -0.1225
    110  CA        16.5400    0.8950   25.9060 C.3   114  ASP114      0.1805
    111  C         15.3760   -0.0230   25.5220 C.2   114  ASP114      0.2597
    112  O         14.4530   -0.2170   26.3080 O.2   114  ASP114     -0.2718
    113  CB        17.3710    0.2670   27.0310 C.3   114  ASP114      0.1424
    114  CG        18.0990   -0.9900   26.5940 C.2   114  ASP114      0.3668
    115  OD1       18.9620   -1.4790   27.3620 O.co2 114  ASP114     -0.2456
    116  OD2       17.8100   -1.4920   25.4920 O.co2 114  ASP114     -0.2456
    117  N         15.4230   -0.5820   24.3150 N.am  115  PHE115     -0.1976
    118  CA        14.3590   -1.4660   23.8460 C.3   115  PHE115      0.1639
    119  C         14.1160   -2.6240   24.7990 C.2   115  PHE115      0.2290
    120  O         13.0020   -3.1330   24.8960 O.2   115  PHE115     -0.2864
    121  CB        14.6800   -2.0290   22.4550 C.3   115  PHE115      0.0560
    122  CG        15.8940   -2.9220   22.4190 C.ar  115  PHE115     -0.0200
    123  CD1       17.1730   -2.3780   22.3210 C.ar  115  PHE115     -0.0042
    124  CD2       15.7580   -4.3050   22.4720 C.ar  115  PHE115     -0.0042
    125  CE1       18.3000   -3.2030   22.2720 C.ar  115  PHE115     -0.0003
    126  CE2       16.8740   -5.1370   22.4260 C.ar  115  PHE115     -0.0003
    127  CZ        18.1490   -4.5860   22.3240 C.ar  115  PHE115     -0.0000
    128  N         16.6230   -3.1190   16.8700 N.3   153  PRO153     -0.2102
    129  CA        16.2300   -2.2480   17.9840 C.3   153  PRO153      0.1504
    130  C         17.2990   -1.2570   18.4440 C.2   153  PRO153      0.2575
    131  O         16.9790   -0.1420   18.8500 O.2   153  PRO153     -0.2718
    132  CB        15.8550   -3.2440   19.0770 C.3   153  PRO153      0.0282
    133  CG        15.2910   -4.3760   18.2980 C.3   153  PRO153      0.0208
    134  CD        16.2770   -4.5200   17.1550 C.3   153  PRO153      0.0893
    135  N         18.5640   -1.6680   18.3930 N.am  154  HIS154     -0.1976
    136  CA        19.6660   -0.7970   18.8010 C.3   154  HIS154      0.1656
    137  C         19.8020    0.4280   17.9010 C.2   154  HIS154      0.2291
    138  O         20.3770    1.4380   18.3160 O.2   154  HIS154     -0.2864
    139  CB        21.0070   -1.5480   18.7850 C.3   154  HIS154      0.0771
    140  CG        21.3180   -2.2820   20.0540 C.ar  154  HIS154      0.0820
    141  ND1       21.2090   -3.6520   20.1710 N.ar  154  HIS154     -0.2267
    142  CD2       21.7700   -1.8370   21.2520 C.ar  154  HIS154      0.1154
    143  CE1       21.5830   -4.0200   21.3830 C.ar  154  HIS154      0.1986
    144  NE2       21.9280   -2.9380   22.0600 N.ar  154  HIS154     -0.2212
    145  N         15.9200    4.6590   17.6170 N.3   157  MET157     -0.1245
    146  CA        15.7820    5.4750   18.8170 C.3   157  MET157      0.1570
    147  C         14.3270    5.8530   19.0090 C.2   157  MET157      0.2261
    148  O         13.6340    6.1960   18.0540 O.2   157  MET157     -0.2867
    149  CB        16.6240    6.7510   18.7150 C.3   157  MET157      0.0387
    150  CG        18.1350    6.5230   18.6140 C.3   157  MET157      0.0595
    151  SD        18.7980    5.6150   20.0200 S.3   157  MET157     -0.1393
    152  CE        18.6320    3.9080   19.4810 C.3   157  MET157      0.0692
    153  N         18.5820    5.2770   13.0470 N.3   168  ILE168     -0.1231
    154  CA        19.9610    5.7620   13.0500 C.3   168  ILE168      0.1692
    155  C         21.0020    4.7430   12.6030 C.2   168  ILE168      0.2592
    156  O         20.6720    3.6240   12.1930 O.2   168  ILE168     -0.2718
    157  CB        20.3850    6.2280   14.4640 C.3   168  ILE168      0.0266
    158  CG1       20.6170    5.0020   15.3590 C.3   168  ILE168      0.0019
    159  CG2       19.3020    7.1270   15.0670 C.3   168  ILE168      0.0020
    160  CD1       21.1600    5.3140   16.7530 C.3   168  ILE168      0.0001
    161  N         22.2600    5.1720   12.7130 N.am  169  ASP169     -0.1974
    162  CA        23.4440    4.3930   12.3860 C.3   169  ASP169      0.1709
    163  C         23.4150    3.8390   10.9730 C.2   169  ASP169      0.2293
    164  O         23.1560    2.6590   10.7470 O.2   169  ASP169     -0.2864
    165  CB        23.6480    3.2880   13.4330 C.3   169  ASP169      0.1436
    166  CG        24.2320    3.8290   14.7450 C.2   169  ASP169      0.3671
    167  OD1       24.5430    3.0280   15.6610 O.co2 169  ASP169     -0.2456
    168  OD2       24.3820    5.0660   14.8540 O.co2 169  ASP169     -0.2456
@<TRIPOS>BOND
     1    50    49    2
     2   164   163    2
     3   163   162    1
     4    47    48    1
     5    49    48    1
     6    52    51    1
     7    48    51    1
     8   156   155    2
     9    62    64   ar
    10    62    60   ar
    11   162   161    1
    12   162   165    1
    13   155   161   am
    14   155   154    1
    15    64    63   ar
    16    51    53    1
    17   153   154    1
    18   154   157    1
    19    60    59   ar
    20   165   166    1
    21    72    71   ar
    22    63    61   ar
    23   157   159    1
    24   157   158    1
    25    59    61   ar
    26    59    58    1
    27   166   168   ar
    28   166   167   ar
    29    71    73   ar
    30    71    70    1
    31   158   160    1
    32    55    58    1
    33    55    54    1
    34    55    56    1
    35    70    69    1
    36    65    56   am
    37    65    66    1
    38    69    66    1
    39    56    57    2
    40    44    45    1
    41    44    43    1
    42    41    40    2
    43    45    46    1
    44    66    67    1
    45   128   134    1
    46   128   129    1
    47    42    43    1
    48    42    39    1
    49   134   133    1
    50   145   146    1
    51    40    39    1
    52   137   138    2
    53   137   136    1
    54    68    67    2
    55   129   130    1
    56   129   132    1
    57    67    74   am
    58    39    38    1
    59   148   147    2
    60    33    32    2
    61   133   132    1
    62   135   130   am
    63   135   136    1
    64   130   131    2
    65    92    90    1
    66   150   149    1
    67   150   151    1
    68   149   146    1
    69   139   136    1
    70   139   140    1
    71   146   147    1
    72    74    75    1
    73    36    34    1
    74    32    31    1
    75   152   151    1
    76    34    31    1
    77    34    35    1
    78    30    31    1
    79    90    91    1
    80    90    87    1
    81   140   141   ar
    82   140   142   ar
    83    77    76    2
    84   141   143   ar
    85    29    27    1
    86    75    76    1
    87    75    78    1
    88    76    86   am
    89    35    37    1
    90    86    87    1
    91    28    27    1
    92    87    88    1
    93   142   144   ar
    94   143   144   ar
    95    27    24    1
    96    78    79    1
    97    24    23    1
    98    24    25    1
    99   107   106    2
   100   125   123   ar
   101   125   127   ar
   102   123   122   ar
   103   127   126   ar
   104    88    89    2
   105    88    93   am
   106   122   121    1
   107   122   124   ar
   108   126   124   ar
   109   121   118    1
   110   106   108   am
   111   106   105    1
   112    79    80   ar
   113    79    81   ar
   114   105   102    1
   115    25    26    2
   116    93    94    1
   117    80    82   ar
   118    81    83   ar
   119   118   117    1
   120   118   119    1
   121    22    21    2
   122    21    20    1
   123   102   101    1
   124   102   103    1
   125   101    95   am
   126   117   111   am
   127    18    16    1
   128    20    19    1
   129    95    94    1
   130    95    96    2
   131    82    84   ar
   132    94    97    1
   133    83    84   ar
   134   119   120    2
   135    19    14   am
   136   103   104    2
   137    84    85    1
   138   116   114   ar
   139   111   110    1
   140   111   112    2
   141    97    98    1
   142    14    15    2
   143    14    13    1
   144    16    13    1
   145    16    17    1
   146   110   109    1
   147   110   113    1
   148    13    12    1
   149   114   113    1
   150   114   115   ar
   151    98   100   am
   152    98    99    2
   153     4     3    2
   154     3     2    1
   155     1     2    1
   156    11     9    1
   157     2     5    1
   158     6     5    1
   159     6     7    1
   160     8     9    2
   161     8     7    1
   162     9    10    1
