@<TRIPOS>MOLECULE
tmp/2pvlA00.pdb
 180 173 0 0 0
SMALL
GASTEIGER

@<TRIPOS>ATOM
      1  N         27.6110   12.9490   28.7530 N.3    38  ARG38      -0.1245
      2  CA        27.5490   11.6020   29.3250 C.3    38  ARG38       0.1563
      3  C         27.5470   10.5430   28.2180 C.2    38  ARG38       0.2260
      4  O         26.9790   10.7500   27.1450 O.2    38  ARG38      -0.2867
      5  CB        26.2880   11.4230   30.1900 C.3    38  ARG38       0.0307
      6  CG        24.9750   11.4260   29.4060 C.3    38  ARG38       0.0489
      7  CD        23.7970   10.9280   30.2420 C.3    38  ARG38       0.2205
      8  NE        22.5960   10.7410   29.4250 N.pl3  38  ARG38      -0.0865
      9  CZ        21.4520   10.2310   29.8710 C.cat  38  ARG38       0.5346
     10  NH1       21.3410    9.8460   31.1370 N.pl3  38  ARG38       0.1354
     11  NH2       20.4110   10.1170   29.0550 N.pl3  38  ARG38       0.1354
     12  N         26.3270    7.2670   26.4330 N.3    40  VAL40      -0.1231
     13  CA        25.0500    6.5640   26.3880 C.3    40  VAL40       0.1692
     14  C         25.1970    5.1710   25.7800 C.2    40  VAL40       0.2593
     15  O         24.2780    4.3530   25.8470 O.2    40  VAL40      -0.2718
     16  CB        24.0110    7.3310   25.5630 C.3    40  VAL40       0.0266
     17  CG1       23.5500    8.5520   26.3220 C.3    40  VAL40       0.0020
     18  CG2       24.6030    7.7190   24.2270 C.3    40  VAL40       0.0020
     19  N         26.3540    4.8970   25.1920 N.am   41  GLY41      -0.1942
     20  CA        26.5580    3.5910   24.5970 C.3    41  GLY41       0.2014
     21  C         27.8890    3.4120   23.8990 C.2    41  GLY41       0.2638
     22  O         28.6890    4.3420   23.7830 O.2    41  GLY41      -0.2714
     23  N         28.1200    2.1970   23.4270 N.am   42  ARG42      -0.1977
     24  CA        29.3480    1.8670   22.7270 C.3    42  ARG42       0.1597
     25  C         29.0870    0.6720   21.8140 C.2    42  ARG42       0.2287
     26  O         28.1200   -0.0680   22.0060 O.2    42  ARG42      -0.2864
     27  CB        30.4570    1.5530   23.7370 C.3    42  ARG42       0.0334
     28  CG        30.0020    0.6920   24.9120 C.3    42  ARG42       0.0492
     29  CD        29.5400   -0.6690   24.4390 C.3    42  ARG42       0.2205
     30  NE        28.5870   -1.3010   25.3480 N.pl3  42  ARG42      -0.0865
     31  CZ        27.9640   -2.4470   25.0850 C.cat  42  ARG42       0.5346
     32  NH1       28.1920   -3.0860   23.9420 N.pl3  42  ARG42       0.1354
     33  NH2       27.1120   -2.9570   25.9610 N.pl3  42  ARG42       0.1354
     34  N         29.3950    6.3220   21.8710 N.3    48  VAL48      -0.1245
     35  CA        28.3440    7.3230   21.7540 C.3    48  VAL48       0.1561
     36  C         28.0680    8.0800   23.0450 C.2    48  VAL48       0.2260
     37  O         27.8970    7.4760   24.1090 O.2    48  VAL48      -0.2867
     38  CB        27.0430    6.6540   21.2670 C.3    48  VAL48       0.0252
     39  CG1       25.9520    7.6820   21.0680 C.3    48  VAL48       0.0019
     40  CG2       27.3170    5.9080   19.9670 C.3    48  VAL48       0.0019
     41  N         23.9130   14.3100   19.9130 N.3    61  ILE61      -0.1245
     42  CA        24.5410   13.0120   20.1100 C.3    61  ILE61       0.1561
     43  C         25.8950   13.0380   19.4370 C.2    61  ILE61       0.2260
     44  O         26.0040   13.3710   18.2600 O.2    61  ILE61      -0.2867
     45  CB        23.6960   11.8710   19.4970 C.3    61  ILE61       0.0252
     46  CG1       22.5560   11.4950   20.4440 C.3    61  ILE61       0.0019
     47  CG2       24.5640   10.6610   19.2260 C.3    61  ILE61       0.0019
     48  CD1       23.0200   11.0090   21.8040 C.3    61  ILE61       0.0001
     49  N         28.9830   10.8750   18.2180 N.3    63  LYS63      -0.1245
     50  CA        29.4310    9.5390   17.8680 C.3    63  LYS63       0.1561
     51  C         30.9040    9.5980   17.4970 C.2    63  LYS63       0.2260
     52  O         31.2580   10.0640   16.4110 O.2    63  LYS63      -0.2867
     53  CB        28.6080    9.0130   16.6880 C.3    63  LYS63       0.0271
     54  CG        28.9580    7.5940   16.2630 C.3    63  LYS63       0.0035
     55  CD        28.0980    7.1640   15.0910 C.3    63  LYS63       0.0206
     56  CE        28.3440    5.7150   14.7070 C.3    63  LYS63       0.1093
     57  NZ        27.2920    5.2700   13.7500 N.3    63  LYS63      -0.1314
     58  N         17.1430    9.8910   11.1450 N.3    89  VAL89      -0.1245
     59  CA        17.9990   10.6660   12.0340 C.3    89  VAL89       0.1561
     60  C         18.7520   11.7140   11.2190 C.2    89  VAL89       0.2260
     61  O         19.2570   11.4210   10.1360 O.2    89  VAL89      -0.2867
     62  CB        19.0180    9.7670   12.7870 C.3    89  VAL89       0.0252
     63  CG1       20.1180    9.2780   11.8410 C.3    89  VAL89       0.0019
     64  CG2       19.6250   10.5480   13.9520 C.3    89  VAL89       0.0019
     65  N         24.9230   14.0300   15.5670 N.3   107  PHE107     -0.1227
     66  CA        23.5430   13.7790   15.1580 C.3   107  PHE107      0.1736
     67  C         22.5890   14.4890   16.1180 C.2   107  PHE107      0.2595
     68  O         23.0110   15.0180   17.1450 O.2   107  PHE107     -0.2718
     69  CB        23.2290   12.2760   15.2310 C.3   107  PHE107      0.0547
     70  CG        24.0560   11.4150   14.3210 C.ar  107  PHE107     -0.0202
     71  CD1       23.6570   11.1820   13.0030 C.ar  107  PHE107     -0.0042
     72  CD2       25.2100   10.7880   14.7930 C.ar  107  PHE107     -0.0042
     73  CE1       24.3930   10.3310   12.1680 C.ar  107  PHE107     -0.0003
     74  CE2       25.9520    9.9380   13.9690 C.ar  107  PHE107     -0.0003
     75  CZ        25.5400    9.7090   12.6540 C.ar  107  PHE107     -0.0000
     76  N         21.3020   14.4800   15.7820 N.am  108  GLU108     -0.1965
     77  CA        20.2860   15.0680   16.6400 C.3   108  GLU108      0.1733
     78  C         20.1570   14.1620   17.8640 C.2   108  GLU108      0.2616
     79  O         20.4720   12.9690   17.8110 O.2   108  GLU108     -0.2715
     80  CB        18.9280   15.1410   15.9230 C.3   108  GLU108      0.0429
     81  CG        18.5440   13.8600   15.1820 C.3   108  GLU108      0.1163
     82  CD        17.0720   13.7950   14.7920 C.2   108  GLU108      0.3649
     83  OE1       16.7660   13.1460   13.7770 O.co2 108  GLU108     -0.2457
     84  OE2       16.2160   14.3650   15.5020 O.co2 108  GLU108     -0.2457
     85  N         19.7020   14.7320   18.9700 N.am  109  TYR109     -0.1960
     86  CA        19.5260   13.9600   20.1900 C.3   109  TYR109      0.1771
     87  C         18.1100   13.4050   20.2520 C.2   109  TYR109      0.2619
     88  O         17.1490   14.0720   19.8640 O.2   109  TYR109     -0.2715
     89  CB        19.7750   14.8520   21.4220 C.3   109  TYR109      0.0574
     90  CG        19.5390   14.1640   22.7530 C.ar  109  TYR109     -0.0198
     91  CD1       20.5190   13.3660   23.3340 C.ar  109  TYR109     -0.0009
     92  CD2       18.3200   14.2820   23.4090 C.ar  109  TYR109     -0.0009
     93  CE1       20.2850   12.6970   24.5330 C.ar  109  TYR109      0.0417
     94  CE2       18.0780   13.6170   24.6110 C.ar  109  TYR109      0.0417
     95  CZ        19.0630   12.8230   25.1600 C.ar  109  TYR109      0.1957
     96  OH        18.7980   12.0950   26.2950 O.3   109  TYR109     -0.2866
     97  N         17.9860   12.1730   20.7200 N.am  110  VAL110     -0.1963
     98  CA        16.6860   11.5530   20.8880 C.3   110  VAL110      0.1727
     99  C         16.6950   10.9470   22.2780 C.2   110  VAL110      0.2616
    100  O         17.5180   10.0920   22.5850 O.2   110  VAL110     -0.2715
    101  CB        16.4320   10.4400   19.8400 C.3   110  VAL110      0.0290
    102  CG1       15.1200    9.7430   20.1230 C.3   110  VAL110      0.0023
    103  CG2       16.4120   11.0470   18.4510 C.3   110  VAL110      0.0023
    104  N         15.8020   11.4140   23.1400 N.am  111  ASN111     -0.1958
    105  CA        15.7510   10.8810   24.4870 C.3   111  ASN111      0.1819
    106  C         15.1800    9.4800   24.3650 C.2   111  ASN111      0.2621
    107  O         13.9860    9.2520   24.5620 O.2   111  ASN111     -0.2715
    108  CB        14.8650   11.7460   25.3850 C.3   111  ASN111      0.1195
    109  CG        14.9490   11.3300   26.8350 C.2   111  ASN111      0.2630
    110  OD1       13.9370   11.2550   27.5390 O.2   111  ASN111     -0.2716
    111  ND2       16.1620   11.0580   27.2950 N.am  111  ASN111     -0.0877
    112  N         16.0530    8.5370   24.0390 N.am  112  ASN112     -0.1972
    113  CA        15.6520    7.1560   23.8440 C.3   112  ASN112      0.1688
    114  C         15.5090    6.3660   25.1350 C.2   112  ASN112      0.2292
    115  O         16.1470    6.6700   26.1390 O.2   112  ASN112     -0.2864
    116  CB        16.6660    6.4570   22.9340 C.3   112  ASN112      0.1181
    117  CG        16.3490    4.9930   22.7280 C.2   112  ASN112      0.2629
    118  OD1       15.3550    4.6460   22.0940 O.2   112  ASN112     -0.2716
    119  ND2       17.1900    4.1240   23.2750 N.am  112  ASN112     -0.0877
    120  N         15.7600    2.4270   26.4200 N.3   114  ASP114     -0.1225
    121  CA        16.2390    1.1080   26.0190 C.3   114  ASP114      0.1805
    122  C         15.1260    0.1140   25.6990 C.2   114  ASP114      0.2597
    123  O         14.2710   -0.1560   26.5400 O.2   114  ASP114     -0.2718
    124  CB        17.1380    0.5310   27.1050 C.3   114  ASP114      0.1424
    125  CG        17.8930   -0.6880   26.6340 C.2   114  ASP114      0.3668
    126  OD1       18.5830   -0.5830   25.5900 O.co2 114  ASP114     -0.2456
    127  OD2       17.7960   -1.7430   27.3040 O.co2 114  ASP114     -0.2456
    128  N         15.1610   -0.4550   24.4930 N.am  115  PHE115     -0.1976
    129  CA        14.1260   -1.3950   24.0810 C.3   115  PHE115      0.1639
    130  C         13.9180   -2.5220   25.0650 C.2   115  PHE115      0.2290
    131  O         12.7880   -2.9650   25.2770 O.2   115  PHE115     -0.2864
    132  CB        14.4060   -1.9790   22.6880 C.3   115  PHE115      0.0560
    133  CG        15.5370   -2.9700   22.6400 C.ar  115  PHE115     -0.0200
    134  CD1       16.8410   -2.5510   22.3920 C.ar  115  PHE115     -0.0042
    135  CD2       15.2920   -4.3270   22.8060 C.ar  115  PHE115     -0.0042
    136  CE1       17.8880   -3.4700   22.3050 C.ar  115  PHE115     -0.0003
    137  CE2       16.3290   -5.2580   22.7230 C.ar  115  PHE115     -0.0003
    138  CZ        17.6320   -4.8270   22.4700 C.ar  115  PHE115     -0.0000
    139  N         18.2220   -1.8750   18.4760 N.3   154  HIS154     -0.1226
    140  CA        19.3510   -1.0210   18.8460 C.3   154  HIS154      0.1752
    141  C         19.5060    0.2070   17.9480 C.2   154  HIS154      0.2596
    142  O         20.0790    1.2160   18.3710 O.2   154  HIS154     -0.2718
    143  CB        20.6700   -1.8060   18.7860 C.3   154  HIS154      0.0759
    144  CG        20.6070   -3.1570   19.4250 C.ar  154  HIS154      0.0818
    145  ND1       19.7360   -4.1400   19.0040 N.ar  154  HIS154     -0.2268
    146  CD2       21.3300   -3.6990   20.4330 C.ar  154  HIS154      0.1154
    147  CE1       19.9260   -5.2310   19.7250 C.ar  154  HIS154      0.1986
    148  NE2       20.8880   -4.9900   20.5980 N.ar  154  HIS154     -0.2212
    149  N         19.0260    0.1170   16.7080 N.am  155  ASN155     -0.1974
    150  CA        19.1520    1.2330   15.7630 C.3   155  ASN155      0.1688
    151  C         17.8670    2.0150   15.5410 C.2   155  ASN155      0.2292
    152  O         17.7620    2.8140   14.6050 O.2   155  ASN155     -0.2864
    153  CB        19.6890    0.7420   14.4100 C.3   155  ASN155      0.1181
    154  CG        21.1650    0.4150   14.4580 C.2   155  ASN155      0.2629
    155  OD1       21.8960    0.9360   15.3020 O.2   155  ASN155     -0.2716
    156  ND2       21.6210   -0.4350   13.5360 N.am  155  ASN155     -0.0877
    157  N         15.7330    4.5580   17.6230 N.3   157  MET157     -0.1245
    158  CA        15.6410    5.3840   18.8340 C.3   157  MET157      0.1570
    159  C         14.2030    5.8240   19.0570 C.2   157  MET157      0.2261
    160  O         13.5490    6.3090   18.1370 O.2   157  MET157     -0.2867
    161  CB        16.5440    6.6260   18.7250 C.3   157  MET157      0.0387
    162  CG        18.0630    6.3410   18.6960 C.3   157  MET157      0.0595
    163  SD        18.6590    5.4880   20.1800 S.3   157  MET157     -0.1393
    164  CE        18.2900    3.8290   19.8230 C.3   157  MET157      0.0692
    165  N         18.4180    5.0460   13.1670 N.3   168  ILE168     -0.1231
    166  CA        19.8070    5.4990   13.1990 C.3   168  ILE168      0.1692
    167  C         20.8330    4.4820   12.6910 C.2   168  ILE168      0.2592
    168  O         20.4780    3.3990   12.1960 O.2   168  ILE168     -0.2718
    169  CB        20.2230    5.9110   14.6330 C.3   168  ILE168      0.0266
    170  CG1       20.3730    4.6690   15.5160 C.3   168  ILE168      0.0019
    171  CG2       19.1470    6.8260   15.2490 C.3   168  ILE168      0.0020
    172  CD1       20.9950    4.9440   16.8720 C.3   168  ILE168      0.0001
    173  N         22.0970    4.8860   12.8010 N.am  169  ASP169     -0.1974
    174  CA        23.2620    4.0990   12.4430 C.3   169  ASP169      0.1709
    175  C         23.2960    3.6170   10.9930 C.2   169  ASP169      0.2293
    176  O         23.1170    2.4280   10.7270 O.2   169  ASP169     -0.2864
    177  CB        23.3560    2.9130   13.3890 C.3   169  ASP169      0.1436
    178  CG        24.5930    2.9490   14.2330 C.2   169  ASP169      0.3671
    179  OD1       24.6930    3.8490   15.1020 O.co2 169  ASP169     -0.2456
    180  OD2       25.4660    2.0760   14.0140 O.co2 169  ASP169     -0.2456
@<TRIPOS>BOND
     1    61    60    2
     2   176   175    2
     3   175   174    1
     4    58    59    1
     5    60    59    1
     6    63    62    1
     7    59    62    1
     8    73    75   ar
     9    73    71   ar
    10   168   167    2
    11   174   173    1
    12   174   177    1
    13    75    74   ar
    14   167   173   am
    15   167   166    1
    16    62    64    1
    17    71    70   ar
    18   165   166    1
    19   166   169    1
    20   177   178    1
    21   156   154   am
    22    57    56    1
    23    83    82   ar
    24    74    72   ar
    25   180   178   ar
    26   178   179   ar
    27    70    72   ar
    28    70    69    1
    29   153   154    1
    30   153   150    1
    31   154   155    2
    32   152   151    2
    33   169   171    1
    34   169   170    1
    35    56    55    1
    36    82    81    1
    37    82    84   ar
    38    55    54    1
    39    66    69    1
    40    66    65    1
    41    66    67    1
    42    81    80    1
    43   170   172    1
    44   151   150    1
    45   150   149    1
    46    76    67   am
    47    76    77    1
    48    80    77    1
    49    67    68    2
    50    54    53    1
    51    52    51    2
    52    77    78    1
    53    53    50    1
    54   149   141   am
    55    51    50    1
    56   157   158    1
    57    79    78    2
    58    78    85   am
    59    50    49    1
    60   141   142    2
    61   141   140    1
    62   160   159    2
    63    44    43    2
    64   103   101    1
    65   139   140    1
    66   162   161    1
    67   162   163    1
    68   161   158    1
    69   143   140    1
    70   143   144    1
    71   158   159    1
    72    85    86    1
    73   145   144   ar
    74   145   147   ar
    75    47    45    1
    76   144   146   ar
    77    43    42    1
    78    45    42    1
    79    45    46    1
    80   147   148   ar
    81   164   163    1
    82   101   102    1
    83   101    98    1
    84    88    87    2
    85    41    42    1
    86    40    38    1
    87    86    87    1
    88    86    89    1
    89    87    97   am
    90   146   148   ar
    91    46    48    1
    92    97    98    1
    93    98    99    1
    94    39    38    1
    95    38    35    1
    96    89    90    1
    97    35    34    1
    98    35    36    1
    99    25    26    2
   100    25    24    1
   101   118   117    2
   102    99   100    2
   103    99   104   am
   104   136   134   ar
   105   136   138   ar
   106   134   133   ar
   107   138   137   ar
   108   133   132    1
   109   133   135   ar
   110   132   129    1
   111   137   135   ar
   112    24    23    1
   113    24    27    1
   114   117   116    1
   115   117   119   am
   116    90    91   ar
   117    90    92   ar
   118   116   113    1
   119    36    37    2
   120   104   105    1
   121    91    93   ar
   122    92    94   ar
   123    23    21   am
   124    27    28    1
   125    22    21    2
   126   113   112    1
   127   113   114    1
   128    21    20    1
   129    32    31    1
   130   112   106   am
   131   129   128    1
   132   129   130    1
   133    18    16    1
   134   106   105    1
   135   106   107    2
   136    29    28    1
   137    29    30    1
   138   105   108    1
   139   128   122   am
   140    93    95   ar
   141    20    19    1
   142    94    95   ar
   143   130   131    2
   144    31    30    2
   145    31    33    1
   146   114   115    2
   147    95    96    1
   148    19    14   am
   149   108   109    1
   150    16    17    1
   151    16    13    1
   152   126   125   ar
   153   122   121    1
   154   122   123    2
   155    14    15    2
   156    14    13    1
   157   121   120    1
   158   121   124    1
   159    13    12    1
   160   125   124    1
   161   125   127   ar
   162   109   111   am
   163   109   110    2
   164     4     3    2
   165     3     2    1
   166     1     2    1
   167    11     9    1
   168     2     5    1
   169     6     5    1
   170     6     7    1
   171     8     9    2
   172     8     7    1
   173     9    10    1
