@<TRIPOS>MOLECULE
tmp/2pvmA00.pdb
 169 161 0 0 0
SMALL
GASTEIGER

@<TRIPOS>ATOM
      1  N         27.2450    7.8050   26.6520 N.3    40  VAL40      -0.1231
      2  CA        25.9550    7.1290   26.7530 C.3    40  VAL40       0.1692
      3  C         25.9720    5.7350   26.1490 C.2    40  VAL40       0.2593
      4  O         25.0630    4.9380   26.3850 O.2    40  VAL40      -0.2718
      5  CB        24.8360    7.9370   26.0660 C.3    40  VAL40       0.0266
      6  CG1       24.5880    9.2260   26.8260 C.3    40  VAL40       0.0020
      7  CG2       25.2110    8.2330   24.6260 C.3    40  VAL40       0.0020
      8  N         27.0030    5.4400   25.3680 N.am   41  GLY41      -0.1942
      9  CA        27.0860    4.1300   24.7560 C.3    41  GLY41       0.2014
     10  C         28.3670    3.8960   23.9860 C.2    41  GLY41       0.2639
     11  O         29.2690    4.7320   23.9710 O.2    41  GLY41      -0.2714
     12  N         28.4390    2.7440   23.3360 N.am   42  ARG42      -0.1963
     13  CA        29.6070    2.3780   22.5590 C.3    42  ARG42       0.1729
     14  C         29.2530    1.2880   21.5610 C.2    42  ARG42       0.2616
     15  O         28.2040    0.6490   21.6610 O.2    42  ARG42      -0.2715
     16  CB        30.7270    1.8950   23.4910 C.3    42  ARG42       0.0348
     17  CG        30.2890    0.8580   24.5310 C.3    42  ARG42       0.0492
     18  CD        29.7680   -0.4130   23.8750 C.3    42  ARG42       0.2205
     19  NE        29.1380   -1.3270   24.8230 N.pl3  42  ARG42      -0.0865
     20  CZ        28.4120   -2.3810   24.4660 C.cat  42  ARG42       0.5346
     21  NH1       28.2230   -2.6540   23.1800 N.pl3  42  ARG42       0.1354
     22  NH2       27.8710   -3.1630   25.3910 N.pl3  42  ARG42       0.1354
     23  N         30.1400    1.0870   20.5960 N.am   43  GLY43      -0.1955
     24  CA        29.9340    0.0680   19.5880 C.3    43  GLY43       0.1869
     25  C         31.3010   -0.3970   19.1440 C.2    43  GLY43       0.2309
     26  O         32.3060    0.0190   19.7190 O.2    43  GLY43      -0.2863
     27  N         32.5890    2.8980   17.2750 N.3    46  SER46      -0.1217
     28  CA        32.6680    4.1930   17.9380 C.3    46  SER46       0.1889
     29  C         32.1890    4.2260   19.3820 C.2    46  SER46       0.2288
     30  O         31.6230    3.2610   19.9010 O.2    46  SER46      -0.2866
     31  CB        31.8460    5.2120   17.1560 C.3    46  SER46       0.2089
     32  OG        30.4660    4.8830   17.2250 O.3    46  SER46      -0.2183
     33  N         29.8780    6.6680   21.9160 N.3    48  VAL48      -0.1245
     34  CA        28.8410    7.6790   21.8150 C.3    48  VAL48       0.1561
     35  C         28.6800    8.4790   23.0870 C.2    48  VAL48       0.2260
     36  O         28.6900    7.9280   24.1880 O.2    48  VAL48      -0.2867
     37  CB        27.5030    7.0160   21.4440 C.3    48  VAL48       0.0252
     38  CG1       26.4390    8.0690   21.1760 C.3    48  VAL48       0.0019
     39  CG2       27.7110    6.1230   20.2260 C.3    48  VAL48       0.0019
     40  N         26.6330   12.0860   24.9510 N.3    50  GLU50      -0.1245
     41  CA        25.5950   13.0910   24.8880 C.3    50  GLU50       0.1567
     42  C         26.4390   14.3540   24.9110 C.2    50  GLU50       0.2260
     43  O         27.3740   14.4530   25.7020 O.2    50  GLU50      -0.2867
     44  CB        24.7060   13.0560   26.1270 C.3    50  GLU50       0.0388
     45  CG        23.5810   14.0720   26.0780 C.3    50  GLU50       0.1160
     46  CD        22.7060   14.0420   27.3150 C.2    50  GLU50       0.3649
     47  OE1       22.2840   12.9370   27.7220 O.co2  50  GLU50      -0.2457
     48  OE2       22.4360   15.1260   27.8730 O.co2  50  GLU50      -0.2457
     49  N         24.2900   14.4420   19.8950 N.3    61  ILE61      -0.1245
     50  CA        24.9410   13.1620   20.1190 C.3    61  ILE61       0.1561
     51  C         26.2660   13.2250   19.3850 C.2    61  ILE61       0.2260
     52  O         26.3180   13.5950   18.2110 O.2    61  ILE61      -0.2867
     53  CB        24.1030   11.9830   19.5700 C.3    61  ILE61       0.0252
     54  CG1       22.9420   11.6710   20.5230 C.3    61  ILE61       0.0019
     55  CG2       24.9940   10.7530   19.3770 C.3    61  ILE61       0.0019
     56  CD1       23.3700   11.0730   21.8670 C.3    61  ILE61       0.0001
     57  N         29.3950   11.0850   18.0980 N.3    63  LYS63      -0.1245
     58  CA        29.8750    9.7490   17.7810 C.3    63  LYS63       0.1561
     59  C         31.3560    9.8510   17.4190 C.2    63  LYS63       0.2260
     60  O         31.7040   10.2850   16.3170 O.2    63  LYS63      -0.2867
     61  CB        29.0740    9.1920   16.6000 C.3    63  LYS63       0.0271
     62  CG        28.7730    7.7050   16.6640 C.3    63  LYS63       0.0035
     63  CD        27.4020    7.4190   16.0520 C.3    63  LYS63       0.0206
     64  CE        27.0380    5.9400   16.1200 C.3    63  LYS63       0.1093
     65  NZ        27.8140    5.1010   15.1690 N.3    63  LYS63      -0.1314
     66  N         17.5010   10.1610   11.1780 N.3    89  VAL89      -0.1245
     67  CA        18.3160   10.9360   12.1100 C.3    89  VAL89       0.1561
     68  C         19.0710   12.0260   11.3390 C.2    89  VAL89       0.2260
     69  O         19.5400   11.7990   10.2230 O.2    89  VAL89      -0.2867
     70  CB        19.3350   10.0340   12.8690 C.3    89  VAL89       0.0252
     71  CG1       20.4510    9.5830   11.9300 C.3    89  VAL89       0.0019
     72  CG2       19.9090   10.7880   14.0720 C.3    89  VAL89       0.0019
     73  N         25.1830   14.3240   15.7310 N.3   107  PHE107     -0.1227
     74  CA        23.8010   14.0130   15.3770 C.3   107  PHE107      0.1736
     75  C         22.8010   14.6960   16.2890 C.2   107  PHE107      0.2595
     76  O         23.1360   15.1070   17.4040 O.2   107  PHE107     -0.2718
     77  CB        23.5580   12.5020   15.4670 C.3   107  PHE107      0.0547
     78  CG        24.3400   11.6890   14.4770 C.ar  107  PHE107     -0.0202
     79  CD1       23.8700   11.5060   13.1800 C.ar  107  PHE107     -0.0042
     80  CD2       25.5350   11.0870   14.8470 C.ar  107  PHE107     -0.0042
     81  CE1       24.5840   10.7270   12.2620 C.ar  107  PHE107     -0.0003
     82  CE2       26.2600   10.3040   13.9350 C.ar  107  PHE107     -0.0003
     83  CZ        25.7800   10.1280   12.6430 C.ar  107  PHE107     -0.0000
     84  N         21.5660   14.7940   15.8070 N.am  108  GLU108     -0.1965
     85  CA        20.4920   15.3860   16.5860 C.3   108  GLU108      0.1733
     86  C         20.3300   14.4610   17.7900 C.2   108  GLU108      0.2616
     87  O         20.5920   13.2580   17.6970 O.2   108  GLU108     -0.2715
     88  CB        19.1900   15.4120   15.7770 C.3   108  GLU108      0.0429
     89  CG        18.4780   14.0630   15.6960 C.3   108  GLU108      0.1163
     90  CD        17.1340   14.1300   14.9820 C.2   108  GLU108      0.3649
     91  OE1       17.0990   13.9770   13.7430 O.co2 108  GLU108     -0.2457
     92  OE2       16.1100   14.3380   15.6640 O.co2 108  GLU108     -0.2457
     93  N         19.8940   15.0150   18.9130 N.am  109  TYR109     -0.1960
     94  CA        19.7140   14.2270   20.1220 C.3   109  TYR109      0.1771
     95  C         18.2890   13.6970   20.2490 C.2   109  TYR109      0.2619
     96  O         17.3250   14.4190   20.0050 O.2   109  TYR109     -0.2715
     97  CB        20.0400   15.0850   21.3500 C.3   109  TYR109      0.0574
     98  CG        19.8740   14.3700   22.6660 C.ar  109  TYR109     -0.0198
     99  CD1       20.9220   13.6360   23.2190 C.ar  109  TYR109     -0.0009
    100  CD2       18.6650   14.4170   23.3570 C.ar  109  TYR109     -0.0009
    101  CE1       20.7730   12.9650   24.4310 C.ar  109  TYR109      0.0417
    102  CE2       18.5040   13.7490   24.5710 C.ar  109  TYR109      0.0417
    103  CZ        19.5610   13.0270   25.1010 C.ar  109  TYR109      0.1957
    104  OH        19.4120   12.3700   26.3010 O.3   109  TYR109     -0.2866
    105  N         18.1630   12.4260   20.6140 N.am  110  VAL110     -0.1963
    106  CA        16.8580   11.8310   20.8230 C.3   110  VAL110      0.1727
    107  C         16.8690   11.2790   22.2420 C.2   110  VAL110      0.2616
    108  O         17.7950   10.5650   22.6270 O.2   110  VAL110     -0.2715
    109  CB        16.5670   10.6850   19.8260 C.3   110  VAL110      0.0290
    110  CG1       15.1730   10.1180   20.0920 C.3   110  VAL110      0.0023
    111  CG2       16.6550   11.2040   18.3930 C.3   110  VAL110      0.0023
    112  N         15.8530   11.6290   23.0260 N.am  111  ASN111     -0.1958
    113  CA        15.7640   11.1610   24.4030 C.3   111  ASN111      0.1819
    114  C         15.2230    9.7340   24.4220 C.2   111  ASN111      0.2621
    115  O         14.1150    9.4680   24.8920 O.2   111  ASN111     -0.2715
    116  CB        14.8640   12.0920   25.2180 C.3   111  ASN111      0.1195
    117  CG        14.8410   11.7320   26.6880 C.2   111  ASN111      0.2630
    118  OD1       15.8550   11.3200   27.2470 O.2   111  ASN111     -0.2716
    119  ND2       13.6880   11.8970   27.3250 N.am  111  ASN111     -0.0877
    120  N         16.0380    8.8210   23.9110 N.am  112  ASN112     -0.1972
    121  CA        15.6960    7.4080   23.8060 C.3   112  ASN112      0.1688
    122  C         15.5810    6.6440   25.1200 C.2   112  ASN112      0.2292
    123  O         16.1660    7.0220   26.1310 O.2   112  ASN112     -0.2864
    124  CB        16.7400    6.7100   22.9300 C.3   112  ASN112      0.1181
    125  CG        16.4890    5.2250   22.7920 C.2   112  ASN112      0.2629
    126  OD1       15.5020    4.8090   22.1880 O.2   112  ASN112     -0.2716
    127  ND2       17.3770    4.4150   23.3610 N.am  112  ASN112     -0.0877
    128  N         18.4320   -1.5150   18.4400 N.3   154  HIS154     -0.1226
    129  CA        19.5240   -0.6070   18.8120 C.3   154  HIS154      0.1752
    130  C         19.6800    0.5710   17.8520 C.2   154  HIS154      0.2596
    131  O         20.2560    1.6030   18.2120 O.2   154  HIS154     -0.2718
    132  CB        20.8620   -1.3550   18.8690 C.3   154  HIS154      0.0759
    133  CG        21.0670   -2.1520   20.1200 C.ar  154  HIS154      0.0818
    134  ND1       21.2170   -3.5240   20.1130 N.ar  154  HIS154     -0.2268
    135  CD2       21.1760   -1.7680   21.4140 C.ar  154  HIS154      0.1154
    136  CE1       21.4120   -3.9490   21.3490 C.ar  154  HIS154      0.1986
    137  NE2       21.3910   -2.9030   22.1570 N.ar  154  HIS154     -0.2212
    138  N         19.1850    0.4200   16.6270 N.am  155  ASN155     -0.1974
    139  CA        19.3020    1.4940   15.6500 C.3   155  ASN155      0.1688
    140  C         18.0220    2.2680   15.4420 C.2   155  ASN155      0.2292
    141  O         17.8660    2.9870   14.4520 O.2   155  ASN155     -0.2864
    142  CB        19.8210    0.9510   14.3170 C.3   155  ASN155      0.1181
    143  CG        21.2880    0.5840   14.3870 C.2   155  ASN155      0.2629
    144  OD1       22.0210    1.0970   15.2390 O.2   155  ASN155     -0.2716
    145  ND2       21.7340   -0.2900   13.4890 N.am  155  ASN155     -0.0877
    146  N         15.9560    4.8620   17.6560 N.3   157  MET157     -0.1245
    147  CA        15.8220    5.6920   18.8490 C.3   157  MET157      0.1570
    148  C         14.3640    6.0670   19.0230 C.2   157  MET157      0.2261
    149  O         13.6870    6.4430   18.0610 O.2   157  MET157     -0.2867
    150  CB        16.6490    6.9710   18.7170 C.3   157  MET157      0.0387
    151  CG        18.1500    6.7450   18.6510 C.3   157  MET157      0.0595
    152  SD        18.8120    6.0820   20.1910 S.3   157  MET157     -0.1393
    153  CE        18.7870    4.3520   19.8540 C.3   157  MET157      0.0692
    154  N         18.6720    5.4030   13.1050 N.3   168  ILE168     -0.1231
    155  CA        20.0600    5.8580   13.1400 C.3   168  ILE168      0.1692
    156  C         21.0730    4.8320   12.6610 C.2   168  ILE168      0.2592
    157  O         20.7160    3.7440   12.2050 O.2   168  ILE168     -0.2718
    158  CB        20.4750    6.2770   14.5730 C.3   168  ILE168      0.0266
    159  CG1       20.5380    5.0410   15.4780 C.3   168  ILE168      0.0019
    160  CG2       19.4720    7.2870   15.1330 C.3   168  ILE168      0.0020
    161  CD1       21.1510    5.2960   16.8490 C.3   168  ILE168      0.0001
    162  N         22.3450    5.2130   12.7830 N.am  169  ASP169     -0.1974
    163  CA        23.4900    4.3940   12.4100 C.3   169  ASP169      0.1709
    164  C         23.4470    3.8310   10.9940 C.2   169  ASP169      0.2293
    165  O         23.2010    2.6410   10.7760 O.2   169  ASP169     -0.2864
    166  CB        23.6980    3.2730   13.4350 C.3   169  ASP169      0.1436
    167  CG        24.4100    3.7630   14.6970 C.2   169  ASP169      0.3671
    168  OD1       24.8540    2.9200   15.5110 O.co2 169  ASP169     -0.2456
    169  OD2       24.5280    4.9960   14.8750 O.co2 169  ASP169     -0.2456
@<TRIPOS>BOND
     1    69    68    2
     2   165   164    2
     3   164   163    1
     4    66    67    1
     5    68    67    1
     6    71    70    1
     7    67    70    1
     8   157   156    2
     9    81    83   ar
    10    81    79   ar
    11   163   162    1
    12   163   166    1
    13    83    82   ar
    14   156   162   am
    15   156   155    1
    16    70    72    1
    17   154   155    1
    18   155   158    1
    19    79    78   ar
    20   166   167    1
    21   145   143   am
    22    91    90   ar
    23    82    80   ar
    24   142   143    1
    25   142   139    1
    26   143   144    2
    27   141   140    2
    28    78    80   ar
    29    78    77    1
    30   158   160    1
    31   158   159    1
    32   167   169   ar
    33   167   168   ar
    34    90    92   ar
    35    90    89    1
    36    65    64    1
    37    74    77    1
    38    74    73    1
    39    74    75    1
    40   140   139    1
    41   159   161    1
    42   139   138    1
    43    89    88    1
    44    88    85    1
    45    84    75   am
    46    84    85    1
    47    63    64    1
    48    63    62    1
    49    75    76    2
    50    60    59    2
    51    85    86    1
    52    61    62    1
    53    61    58    1
    54   138   130   am
    55    31    32    1
    56    31    28    1
    57    27    28    1
    58    59    58    1
    59   146   147    1
    60    87    86    2
    61    58    57    1
    62    86    93   am
    63   130   131    2
    64   130   129    1
    65    28    29    1
    66   149   148    2
    67    52    51    2
    68   111   109    1
    69   128   129    1
    70   151   150    1
    71   151   152    1
    72   150   147    1
    73   129   132    1
    74   147   148    1
    75   132   133    1
    76    93    94    1
    77    25    24    1
    78    25    26    2
    79    55    53    1
    80    29    30    2
    81    51    50    1
    82    53    50    1
    83    53    54    1
    84    24    23    1
    85   109   110    1
    86   109   106    1
    87   153   152    1
    88    49    50    1
    89    96    95    2
    90   134   133   ar
    91   134   136   ar
    92   133   135   ar
    93    94    95    1
    94    94    97    1
    95    39    37    1
    96    95   105   am
    97    54    56    1
    98    23    14   am
    99   105   106    1
   100   106   107    1
   101    38    37    1
   102   136   137   ar
   103    97    98    1
   104   135   137   ar
   105    37    34    1
   106    14    15    2
   107    14    13    1
   108    34    33    1
   109    34    35    1
   110   126   125    2
   111   107   108    2
   112   107   112   am
   113    13    12    1
   114    13    16    1
   115    98    99   ar
   116    98   100   ar
   117   125   124    1
   118   125   127   am
   119   124   121    1
   120   112   113    1
   121    35    36    2
   122    21    20    1
   123    99   101   ar
   124    12    10   am
   125   100   102   ar
   126    16    17    1
   127   121   120    1
   128   121   122    1
   129    18    17    1
   130    18    19    1
   131   120   114   am
   132    11    10    2
   133    10     9    1
   134   113   114    1
   135   113   116    1
   136   114   115    2
   137   101   103   ar
   138    20    19    2
   139    20    22    1
   140   102   103   ar
   141     7     5    1
   142     9     8    1
   143    41    42    1
   144    41    40    1
   145    41    44    1
   146    42    43    2
   147   103   104    1
   148   122   123    2
   149   116   117    1
   150     8     3   am
   151     5     2    1
   152     5     6    1
   153    45    44    1
   154    45    46    1
   155     3     4    2
   156     3     2    1
   157     1     2    1
   158   117   118    2
   159   117   119   am
   160    46    47   ar
   161    46    48   ar
