@<TRIPOS>MOLECULE
tmp/2pvnA00.pdb
 188 178 0 0 0
SMALL
GASTEIGER

@<TRIPOS>ATOM
      1  N         27.7230   13.0160   28.6680 N.3    38  ARG38      -0.1245
      2  CA        27.8260   11.6870   29.2890 C.3    38  ARG38       0.1563
      3  C         27.6980   10.5780   28.2420 C.2    38  ARG38       0.2260
      4  O         27.0870   10.7670   27.1910 O.2    38  ARG38      -0.2867
      5  CB        26.7570   11.4870   30.3780 C.3    38  ARG38       0.0307
      6  CG        25.3230   11.3410   29.8740 C.3    38  ARG38       0.0489
      7  CD        24.3460   11.2060   31.0410 C.3    38  ARG38       0.2205
      8  NE        22.9630   10.9790   30.6150 N.pl3  38  ARG38      -0.0865
      9  CZ        22.5130    9.8580   30.0480 C.cat  38  ARG38       0.5346
     10  NH1       23.3340    8.8370   29.8310 N.pl3  38  ARG38       0.1354
     11  NH2       21.2370    9.7550   29.6910 N.pl3  38  ARG38       0.1354
     12  N         26.4150    7.1240   26.5040 N.3    40  VAL40      -0.1231
     13  CA        25.0950    6.5060   26.4360 C.3    40  VAL40       0.1692
     14  C         25.0920    5.2090   25.6560 C.2    40  VAL40       0.2593
     15  O         24.2030    4.3860   25.8280 O.2    40  VAL40      -0.2718
     16  CB        24.0560    7.4340   25.7880 C.3    40  VAL40       0.0266
     17  CG1       23.7590    8.5980   26.7110 C.3    40  VAL40       0.0020
     18  CG2       24.5650    7.9110   24.4390 C.3    40  VAL40       0.0020
     19  N         26.0810    5.0280   24.7930 N.am   41  GLY41      -0.1942
     20  CA        26.1280    3.8090   24.0230 C.3    41  GLY41       0.2014
     21  C         27.4860    3.5490   23.4320 C.2    41  GLY41       0.2639
     22  O         28.3740    4.3950   23.4650 O.2    41  GLY41      -0.2714
     23  N         27.6410    2.3570   22.8830 N.am   42  ARG42      -0.1963
     24  CA        28.8850    1.9710   22.2570 C.3    42  ARG42       0.1729
     25  C         28.6110    0.8050   21.3230 C.2    42  ARG42       0.2616
     26  O         27.6840    0.0230   21.5460 O.2    42  ARG42      -0.2715
     27  CB        29.9180    1.5890   23.3290 C.3    42  ARG42       0.0348
     28  CG        29.5120    0.4310   24.2380 C.3    42  ARG42       0.0492
     29  CD        29.7500   -0.9110   23.5720 C.3    42  ARG42       0.2205
     30  NE        29.2670   -2.0300   24.3770 N.pl3  42  ARG42      -0.0865
     31  CZ        27.9830   -2.2900   24.6160 C.cat  42  ARG42       0.5346
     32  NH1       27.0320   -1.5070   24.1150 N.pl3  42  ARG42       0.1354
     33  NH2       27.6480   -3.3490   25.3420 N.pl3  42  ARG42       0.1354
     34  N         29.4050    0.7130   20.2660 N.am   43  GLY43      -0.1955
     35  CA        29.2650   -0.3660   19.3090 C.3    43  GLY43       0.1869
     36  C         30.6700   -0.8630   19.0660 C.2    43  GLY43       0.2309
     37  O         31.6160   -0.3630   19.6770 O.2    43  GLY43      -0.2863
     38  N         32.3220    2.3120   17.4770 N.3    46  SER46      -0.1217
     39  CA        32.3860    3.6460   18.0600 C.3    46  SER46       0.1889
     40  C         31.8460    3.7320   19.4720 C.2    46  SER46       0.2288
     41  O         31.3610    2.7440   20.0390 O.2    46  SER46      -0.2866
     42  CB        31.5900    4.6260   17.2110 C.3    46  SER46       0.2089
     43  OG        30.2030    4.4080   17.3940 O.3    46  SER46      -0.2183
     44  N         29.3710    6.3590   21.9240 N.3    48  VAL48      -0.1245
     45  CA        28.3460    7.3680   21.7840 C.3    48  VAL48       0.1561
     46  C         28.0820    8.1240   23.0750 C.2    48  VAL48       0.2260
     47  O         27.8710    7.5300   24.1350 O.2    48  VAL48      -0.2867
     48  CB        27.0440    6.7080   21.3040 C.3    48  VAL48       0.0252
     49  CG1       25.9590    7.7620   21.0660 C.3    48  VAL48       0.0019
     50  CG2       27.3240    5.8980   20.0410 C.3    48  VAL48       0.0019
     51  N         24.0670   14.2870   19.8610 N.3    61  ILE61      -0.1245
     52  CA        24.6760   12.9780   20.0540 C.3    61  ILE61       0.1561
     53  C         25.9930   12.9350   19.3120 C.2    61  ILE61       0.2260
     54  O         26.0490   13.1570   18.1040 O.2    61  ILE61      -0.2867
     55  CB        23.7810   11.8440   19.5310 C.3    61  ILE61       0.0252
     56  CG1       22.5540   11.6840   20.4320 C.3    61  ILE61       0.0019
     57  CG2       24.5540   10.5510   19.5160 C.3    61  ILE61       0.0019
     58  CD1       22.8760   11.1250   21.8050 C.3    61  ILE61       0.0001
     59  N         29.0340   10.7520   18.0650 N.3    63  LYS63      -0.1245
     60  CA        29.4570    9.4070   17.7370 C.3    63  LYS63       0.1561
     61  C         30.9280    9.4390   17.3680 C.2    63  LYS63       0.2260
     62  O         31.2780    9.8270   16.2560 O.2    63  LYS63      -0.2867
     63  CB        28.6400    8.8700   16.5640 C.3    63  LYS63       0.0271
     64  CG        29.1160    7.5200   16.0730 C.3    63  LYS63       0.0035
     65  CD        28.2890    7.0490   14.8820 C.3    63  LYS63       0.0206
     66  CE        28.6940    5.6620   14.4480 C.3    63  LYS63       0.1093
     67  NZ        27.6710    5.1070   13.5140 N.3    63  LYS63      -0.1314
     68  N         28.8850    6.1170    5.1360 N.3    76  GLU76      -0.1245
     69  CA        27.9390    6.4490    6.1950 C.3    76  GLU76       0.1567
     70  C         27.5610    7.9160    6.1150 C.2    76  GLU76       0.2260
     71  O         26.4240    8.2830    6.4070 O.2    76  GLU76      -0.2867
     72  CB        28.5240    6.1540    7.5900 C.3    76  GLU76       0.0388
     73  CG        27.5770    6.5600    8.7300 C.3    76  GLU76       0.1160
     74  CD        27.9890    6.0380   10.1060 C.2    76  GLU76       0.3649
     75  OE1       28.8940    5.1730   10.1900 O.co2  76  GLU76      -0.2457
     76  OE2       27.3820    6.4870   11.1090 O.co2  76  GLU76      -0.2457
     77  N         17.2040    9.7190   11.2270 N.3    89  VAL89      -0.1245
     78  CA        18.0410   10.4830   12.1430 C.3    89  VAL89       0.1561
     79  C         18.8140   11.5310   11.3550 C.2    89  VAL89       0.2260
     80  O         19.4120   11.2270   10.3230 O.2    89  VAL89      -0.2867
     81  CB        19.0490    9.5760   12.9140 C.3    89  VAL89       0.0252
     82  CG1       20.0300    8.9100   11.9480 C.3    89  VAL89       0.0019
     83  CG2       19.8120   10.4160   13.9350 C.3    89  VAL89       0.0019
     84  N         24.9980   14.0030   15.6610 N.3   107  PHE107     -0.1227
     85  CA        23.6150   13.6620   15.3070 C.3   107  PHE107      0.1736
     86  C         22.6040   14.3120   16.2580 C.2   107  PHE107      0.2595
     87  O         22.9210   14.6300   17.4090 O.2   107  PHE107     -0.2718
     88  CB        23.3870   12.1420   15.3990 C.3   107  PHE107      0.0547
     89  CG        24.2310   11.3150   14.4680 C.ar  107  PHE107     -0.0202
     90  CD1       23.8830   11.1730   13.1210 C.ar  107  PHE107     -0.0042
     91  CD2       25.3510   10.6350   14.9480 C.ar  107  PHE107     -0.0042
     92  CE1       24.6370   10.3600   12.2570 C.ar  107  PHE107     -0.0003
     93  CE2       26.1170    9.8190   14.0980 C.ar  107  PHE107     -0.0003
     94  CZ        25.7550    9.6830   12.7450 C.ar  107  PHE107     -0.0000
     95  N         21.3730   14.4700   15.7830 N.am  108  GLU108     -0.1965
     96  CA        20.3110   15.0330   16.6030 C.3   108  GLU108      0.1733
     97  C         20.2280   14.1640   17.8570 C.2   108  GLU108      0.2616
     98  O         20.6280   12.9960   17.8330 O.2   108  GLU108     -0.2715
     99  CB        18.9730   14.9840   15.8490 C.3   108  GLU108      0.0429
    100  CG        18.2560   13.6300   15.8860 C.3   108  GLU108      0.1163
    101  CD        17.0000   13.5930   15.0140 C.2   108  GLU108      0.3649
    102  OE1       17.1330   13.3690   13.7960 O.co2 108  GLU108     -0.2457
    103  OE2       15.8830   13.8010   15.5390 O.co2 108  GLU108     -0.2457
    104  N         19.7190   14.7290   18.9480 N.am  109  TYR109     -0.1960
    105  CA        19.5960   13.9860   20.2020 C.3   109  TYR109      0.1771
    106  C         18.1820   13.4520   20.4080 C.2   109  TYR109      0.2619
    107  O         17.1970   14.1510   20.1690 O.2   109  TYR109     -0.2715
    108  CB        19.9760   14.8670   21.4030 C.3   109  TYR109      0.0574
    109  CG        19.7710   14.1850   22.7410 C.ar  109  TYR109     -0.0198
    110  CD1       20.7490   13.3480   23.2830 C.ar  109  TYR109     -0.0009
    111  CD2       18.5600   14.2970   23.4140 C.ar  109  TYR109     -0.0009
    112  CE1       20.5190   12.6320   24.4600 C.ar  109  TYR109      0.0417
    113  CE2       18.3200   13.5890   24.5830 C.ar  109  TYR109      0.0417
    114  CZ        19.3000   12.7600   25.1020 C.ar  109  TYR109      0.1957
    115  OH        19.0450   12.0840   26.2730 O.3   109  TYR109     -0.2866
    116  N         18.0970   12.2070   20.8560 N.am  110  VAL110     -0.1963
    117  CA        16.8210   11.5690   21.1180 C.3   110  VAL110      0.1727
    118  C         16.8580   10.9660   22.5130 C.2   110  VAL110      0.2616
    119  O         17.7000   10.1280   22.8060 O.2   110  VAL110     -0.2715
    120  CB        16.5450   10.4380   20.1000 C.3   110  VAL110      0.0290
    121  CG1       15.2100    9.7800   20.3950 C.3   110  VAL110      0.0023
    122  CG2       16.5890   10.9930   18.6930 C.3   110  VAL110      0.0023
    123  N         15.9560   11.3970   23.3840 N.am  111  ASN111     -0.1958
    124  CA        15.9450   10.8410   24.7240 C.3   111  ASN111      0.1819
    125  C         15.2900    9.4860   24.5870 C.2   111  ASN111      0.2621
    126  O         14.1010    9.3020   24.8700 O.2   111  ASN111     -0.2715
    127  CB        15.1500   11.7080   25.6970 C.3   111  ASN111      0.1195
    128  CG        15.0410   11.0690   27.0690 C.2   111  ASN111      0.2630
    129  OD1       14.0380   11.2340   27.7650 O.2   111  ASN111     -0.2716
    130  ND2       16.0810   10.3310   27.4680 N.am  111  ASN111     -0.0877
    131  N         16.0930    8.5360   24.1410 N.am  112  ASN112     -0.1972
    132  CA        15.6340    7.1790   23.9170 C.3   112  ASN112      0.1688
    133  C         15.5010    6.3280   25.1680 C.2   112  ASN112      0.2292
    134  O         16.3200    6.4190   26.0730 O.2   112  ASN112     -0.2864
    135  CB        16.5910    6.4760   22.9570 C.3   112  ASN112      0.1181
    136  CG        16.3060    5.0050   22.8550 C.2   112  ASN112      0.2629
    137  OD1       15.2410    4.6080   22.3900 O.2   112  ASN112     -0.2716
    138  ND2       17.2440    4.1830   23.3120 N.am  112  ASN112     -0.0877
    139  N         15.7250    2.6120   26.4930 N.3   114  ASP114     -0.1239
    140  CA        16.2400    1.2930   26.1070 C.3   114  ASP114      0.1674
    141  C         15.0820    0.3950   25.7020 C.2   114  ASP114      0.2266
    142  O         14.0690    0.3460   26.3940 O.2   114  ASP114     -0.2867
    143  CB        17.0070    0.6600   27.2730 C.3   114  ASP114      0.1410
    144  CG        17.6750   -0.6510   26.8940 C.2   114  ASP114      0.3668
    145  OD1       18.4220   -0.6700   25.8860 O.co2 114  ASP114     -0.2456
    146  OD2       17.4640   -1.6570   27.6060 O.co2 114  ASP114     -0.2456
    147  N         18.1440   -1.8270   18.8340 N.3   154  HIS154     -0.1226
    148  CA        19.2640   -0.9370   19.1590 C.3   154  HIS154      0.1752
    149  C         19.4150    0.2340   18.1890 C.2   154  HIS154      0.2596
    150  O         20.0180    1.2510   18.5230 O.2   154  HIS154     -0.2718
    151  CB        20.6050   -1.6920   19.1660 C.3   154  HIS154      0.0759
    152  CG        20.5510   -3.0530   19.7870 C.ar  154  HIS154      0.0818
    153  ND1       19.8530   -4.1030   19.2230 N.ar  154  HIS154     -0.2268
    154  CD2       21.1520   -3.5520   20.8920 C.ar  154  HIS154      0.1154
    155  CE1       20.0330   -5.1900   19.9510 C.ar  154  HIS154      0.1986
    156  NE2       20.8180   -4.8840   20.9690 N.ar  154  HIS154     -0.2212
    157  N         18.8990    0.0980   16.9770 N.am  155  ASN155     -0.1974
    158  CA        19.0430    1.1890   16.0220 C.3   155  ASN155      0.1688
    159  C         17.7520    1.9320   15.7590 C.2   155  ASN155      0.2292
    160  O         17.6050    2.6250   14.7470 O.2   155  ASN155     -0.2864
    161  CB        19.6460    0.6850   14.7120 C.3   155  ASN155      0.1181
    162  CG        21.1360    0.4870   14.8080 C.2   155  ASN155      0.2629
    163  OD1       21.8080    1.1360   15.6090 O.2   155  ASN155     -0.2716
    164  ND2       21.6720   -0.3870   13.9730 N.am  155  ASN155     -0.0877
    165  N         15.6830    4.5660   17.7780 N.3   157  MET157     -0.1245
    166  CA        15.5910    5.4530   18.9380 C.3   157  MET157      0.1570
    167  C         14.1630    5.9560   19.1550 C.2   157  MET157      0.2261
    168  O         13.5620    6.5480   18.2660 O.2   157  MET157     -0.2867
    169  CB        16.5240    6.6550   18.7590 C.3   157  MET157      0.0387
    170  CG        18.0260    6.3330   18.7720 C.3   157  MET157      0.0595
    171  SD        18.6470    5.7470   20.3750 S.3   157  MET157     -0.1393
    172  CE        18.6330    3.9680   20.0890 C.3   157  MET157      0.0692
    173  N         18.3740    5.0020   13.3190 N.3   168  ILE168     -0.1231
    174  CA        19.7600    5.4900   13.4010 C.3   168  ILE168      0.1692
    175  C         20.8420    4.4990   12.9970 C.2   168  ILE168      0.2592
    176  O         20.5680    3.3160   12.7260 O.2   168  ILE168     -0.2718
    177  CB        20.1280    5.9750   14.8290 C.3   168  ILE168      0.0266
    178  CG1       20.1920    4.7760   15.7810 C.3   168  ILE168      0.0019
    179  CG2       19.0990    6.9750   15.3390 C.3   168  ILE168      0.0020
    180  CD1       21.0610    5.0170   17.0060 C.3   168  ILE168      0.0001
    181  N         22.0710    5.0250   12.9850 N.am  169  ASP169     -0.1974
    182  CA        23.3020    4.3040   12.6710 C.3   169  ASP169      0.1709
    183  C         23.3000    3.6740   11.2830 C.2   169  ASP169      0.2293
    184  O         22.9620    2.4970   11.1170 O.2   169  ASP169     -0.2864
    185  CB        23.5690    3.2260   13.7230 C.3   169  ASP169      0.1436
    186  CG        25.0390    2.8010   13.7680 C.2   169  ASP169      0.3671
    187  OD1       25.7440    2.9070   12.7390 O.co2 169  ASP169     -0.2456
    188  OD2       25.4840    2.3500   14.8380 O.co2 169  ASP169     -0.2456
@<TRIPOS>BOND
     1    68    69    1
     2    70    69    1
     3    70    71    2
     4    69    72    1
     5    72    73    1
     6    73    74    1
     7    74    75   ar
     8    74    76   ar
     9    80    79    2
    10   184   183    2
    11    77    78    1
    12   183   182    1
    13    79    78    1
    14    82    81    1
    15    78    81    1
    16    92    94   ar
    17    92    90   ar
    18   182   181    1
    19   182   185    1
    20   176   175    2
    21   187   186   ar
    22    94    93   ar
    23    81    83    1
    24   181   175   am
    25   175   174    1
    26    90    89   ar
    27   173   174    1
    28   174   177    1
    29    67    66    1
    30   185   186    1
    31   186   188   ar
    32   102   101   ar
    33   164   162   am
    34    93    91   ar
    35    66    65    1
    36    89    91   ar
    37    89    88    1
    38   161   162    1
    39   161   158    1
    40   160   159    2
    41   162   163    2
    42   177   179    1
    43   177   178    1
    44    65    64    1
    45   101   103   ar
    46   101   100    1
    47    85    88    1
    48    85    84    1
    49    85    86    1
    50   159   158    1
    51   178   180    1
    52    95    86   am
    53    95    96    1
    54    99   100    1
    55    99    96    1
    56   158   157    1
    57    64    63    1
    58    62    61    2
    59    86    87    2
    60    63    60    1
    61    96    97    1
    62   157   149   am
    63    42    43    1
    64    42    39    1
    65    61    60    1
    66    38    39    1
    67    60    59    1
    68   165   166    1
    69    98    97    2
    70    97   104   am
    71    39    40    1
    72    54    53    2
    73   149   150    2
    74   149   148    1
    75   168   167    2
    76   122   120    1
    77   169   170    1
    78   169   166    1
    79   170   171    1
    80   147   148    1
    81   166   167    1
    82   104   105    1
    83    36    35    1
    84    36    37    2
    85   148   151    1
    86   151   152    1
    87   153   152   ar
    88   153   155   ar
    89    35    34    1
    90    53    52    1
    91    40    41    2
    92    57    55    1
    93    55    52    1
    94    55    56    1
    95   152   154   ar
    96    51    52    1
    97   155   156   ar
    98    50    48    1
    99   172   171    1
   100   120   121    1
   101   120   117    1
   102   107   106    2
   103   105   106    1
   104   105   108    1
   105    34    25   am
   106   106   116   am
   107    56    58    1
   108   116   117    1
   109   154   156   ar
   110    49    48    1
   111   117   118    1
   112    48    45    1
   113    25    26    2
   114    25    24    1
   115   108   109    1
   116    45    44    1
   117    45    46    1
   118    24    23    1
   119    24    27    1
   120   137   136    2
   121   118   119    2
   122   118   123   am
   123   109   110   ar
   124   109   111   ar
   125   136   135    1
   126   136   138   am
   127    23    21   am
   128   135   132    1
   129    46    47    2
   130   110   112   ar
   131    27    28    1
   132   123   124    1
   133   111   113   ar
   134    21    22    2
   135    21    20    1
   136    29    28    1
   137    29    30    1
   138   132   131    1
   139   132   133    1
   140    20    19    1
   141    32    31    1
   142   131   125   am
   143    30    31    2
   144    18    16    1
   145   112   114   ar
   146   113   114   ar
   147   125   124    1
   148   125   126    2
   149    31    33    1
   150   124   127    1
   151    19    14   am
   152   114   115    1
   153   133   134    2
   154    14    15    2
   155    14    13    1
   156   127   128    1
   157   141   140    1
   158   141   142    2
   159    16    13    1
   160    16    17    1
   161   145   144   ar
   162   140   139    1
   163   140   143    1
   164    13    12    1
   165   144   143    1
   166   144   146   ar
   167   128   130   am
   168   128   129    2
   169     4     3    2
   170     3     2    1
   171     1     2    1
   172     2     5    1
   173    11     9    1
   174    10     9    1
   175     6     5    1
   176     6     7    1
   177     9     8    2
   178     8     7    1
