@<TRIPOS>MOLECULE
tmp/2pvuA00.pdb
 148 140 0 0 0
SMALL
GASTEIGER

@<TRIPOS>ATOM
      1  N         -4.5250   17.4790    9.7430 N.3    12  ASP12      -0.1239
      2  CA        -3.9600   17.6020   11.1120 C.3    12  ASP12       0.1674
      3  C         -4.4310   16.3660   11.8270 C.2    12  ASP12       0.2266
      4  O         -5.5360   16.3920   12.3960 O.2    12  ASP12      -0.2867
      5  CB        -4.5080   18.8860   11.7760 C.3    12  ASP12       0.1410
      6  CG        -4.2800   18.9290   13.2860 C.2    12  ASP12       0.3668
      7  OD1       -3.2100   18.4000   13.7090 O.co2  12  ASP12      -0.2456
      8  OD2       -5.1490   19.4680   14.0180 O.co2  12  ASP12      -0.2456
      9  N         -7.2470   14.6680   15.7910 N.3    15  PHE15      -0.1241
     10  CA        -8.6360   15.2160   15.8670 C.3    15  PHE15       0.1605
     11  C         -9.6310   14.0490   15.7070 C.2    15  PHE15       0.2264
     12  O        -10.5080   14.0360   14.8110 O.2    15  PHE15      -0.2867
     13  CB        -8.8220   16.2920   14.7790 C.3    15  PHE15       0.0534
     14  CG        -9.8790   17.3230   15.0870 C.ar   15  PHE15      -0.0203
     15  CD1      -10.9840   17.4530   14.2490 C.ar   15  PHE15      -0.0042
     16  CD2       -9.7640   18.1630   16.2200 C.ar   15  PHE15      -0.0042
     17  CE1      -11.9790   18.4320   14.5030 C.ar   15  PHE15      -0.0003
     18  CE2      -10.7440   19.1330   16.4960 C.ar   15  PHE15      -0.0003
     19  CZ       -11.8600   19.2670   15.6230 C.ar   15  PHE15      -0.0000
     20  N         -1.8380   21.6460   11.6660 N.3    52  TRP52      -0.1241
     21  CA        -2.9660   22.5230   11.3770 C.3    52  TRP52       0.1605
     22  C         -2.4690   23.8280   10.7410 C.2    52  TRP52       0.2264
     23  O         -2.9300   24.2430    9.6530 O.2    52  TRP52      -0.2867
     24  CB        -3.6820   22.7980   12.7050 C.3    52  TRP52       0.0550
     25  CG        -4.8880   23.7170   12.6450 C.ar   52  TRP52       0.0003
     26  CD1       -4.9930   25.0050   13.1970 C.ar   52  TRP52       0.0946
     27  CD2       -6.1200   23.4550   12.0020 C.ar   52  TRP52       0.0152
     28  NE1       -6.2500   25.5110   12.9580 N.ar   52  TRP52      -0.2442
     29  CE2       -6.9550   24.5890   12.2040 C.ar   52  TRP52       0.0810
     30  CE3       -6.6200   22.3650   11.2490 C.ar   52  TRP52       0.0012
     31  CZ2       -8.2760   24.6460   11.6960 C.ar   52  TRP52       0.0191
     32  CZ3       -7.9540   22.4130   10.7500 C.ar   52  TRP52       0.0001
     33  CH2       -8.7630   23.5300   10.9780 C.ar   52  TRP52       0.0015
     34  N         -9.8720   17.9880    7.2000 N.3    69  SER69      -0.1202
     35  CA        -9.3390   18.0670    8.5800 C.3    69  SER69       0.2020
     36  C        -10.3900   18.6740    9.5350 C.2    69  SER69       0.2619
     37  O        -10.0190   19.5150   10.3840 O.2    69  SER69      -0.2717
     38  CB        -8.0420   18.9120    8.5780 C.3    69  SER69       0.2103
     39  OG        -7.2030   18.7190    9.7220 O.3    69  SER69      -0.2182
     40  N        -11.6640   18.2830    9.3800 N.am   70  GLY70      -0.1942
     41  CA       -12.7480   18.7730   10.2750 C.3    70  GLY70       0.2014
     42  C        -12.8180   20.2930   10.1320 C.2    70  GLY70       0.2639
     43  O        -13.0510   20.9930   11.0940 O.2    70  GLY70      -0.2714
     44  N        -12.6460   20.7850    8.9160 N.am   71  ILE71      -0.1963
     45  CA       -12.5620   22.2680    8.6560 C.3    71  ILE71       0.1727
     46  C        -13.8870   22.9310    8.3990 C.2    71  ILE71       0.2616
     47  O        -14.5290   22.6620    7.3770 O.2    71  ILE71      -0.2715
     48  CB       -11.6600   22.5880    7.4260 C.3    71  ILE71       0.0290
     49  CG1      -10.3110   21.8700    7.5940 C.3    71  ILE71       0.0022
     50  CG2      -11.4790   24.1770    7.3100 C.3    71  ILE71       0.0023
     51  CD1       -9.4910   21.7400    6.2350 C.3    71  ILE71       0.0001
     52  N        -14.2620   23.8510    9.2760 N.am   72  THR72      -0.1951
     53  CA       -15.5050   24.6040    9.1080 C.3    72  THR72       0.1897
     54  C        -15.3900   25.5600    7.9360 C.2    72  THR72       0.2313
     55  O        -14.4110   26.2920    7.7940 O.2    72  THR72      -0.2863
     56  CB       -15.8550   25.3710   10.3880 C.3    72  THR72       0.1794
     57  OG1      -16.0090   24.4410   11.4780 O.3    72  THR72      -0.2208
     58  CG2      -17.1370   26.1870   10.2260 C.3    72  THR72       0.0378
     59  N        -12.5490   32.4460    5.7230 N.3    77  ARG77      -0.1245
     60  CA       -11.7130   31.4830    5.0100 C.3    77  ARG77       0.1563
     61  C        -11.9620   31.4370    3.5050 C.2    77  ARG77       0.2260
     62  O        -11.0350   31.1690    2.7540 O.2    77  ARG77      -0.2867
     63  CB       -11.8600   30.0970    5.6080 C.3    77  ARG77       0.0307
     64  CG       -11.1090   29.9800    6.9320 C.3    77  ARG77       0.0489
     65  CD       -11.5830   28.7450    7.6910 C.3    77  ARG77       0.2205
     66  NE       -10.8880   28.5640    8.9910 N.pl3  77  ARG77      -0.0865
     67  CZ       -11.1790   27.6020    9.8660 C.cat  77  ARG77       0.5346
     68  NH1      -12.1760   26.7540    9.6270 N.pl3  77  ARG77       0.1354
     69  NH2      -10.4790   27.4810   10.9980 N.pl3  77  ARG77       0.1354
     70  N        -19.5130   24.0970   18.0920 N.3    92  GLN92      -0.1245
     71  CA       -18.5850   24.1450   19.2190 C.3    92  GLN92       0.1566
     72  C        -19.3640   23.7350   20.4780 C.2    92  GLN92       0.2260
     73  O        -20.5740   23.9790   20.5880 O.2    92  GLN92      -0.2867
     74  CB       -18.0210   25.5550   19.4220 C.3    92  GLN92       0.0367
     75  CG       -17.1470   26.0470   18.3240 C.3    92  GLN92       0.0905
     76  CD       -16.0610   25.0320   17.9560 C.2    92  GLN92       0.2608
     77  OE1      -15.0840   24.8110   18.6990 O.2    92  GLN92      -0.2717
     78  NE2      -16.2370   24.4110   16.8230 N.am   92  GLN92      -0.0878
     79  N         -7.6370   25.1700   20.1490 N.3   116  GLN116     -0.1245
     80  CA        -6.6320   24.9930   19.1200 C.3   116  GLN116      0.1566
     81  C         -6.4770   26.3090   18.3450 C.2   116  GLN116      0.2260
     82  O         -7.4770   27.0120   18.0610 O.2   116  GLN116     -0.2867
     83  CB        -6.9440   23.8180   18.2050 C.3   116  GLN116      0.0367
     84  CG        -5.8880   23.6390   17.0930 C.3   116  GLN116      0.0905
     85  CD        -6.1210   22.3880   16.2610 C.2   116  GLN116      0.2608
     86  OE1       -7.2300   21.8430   16.2290 O.2   116  GLN116     -0.2717
     87  NE2       -5.0870   21.9490   15.5670 N.am  116  GLN116     -0.0878
     88  N         -8.8480   28.3070   15.0940 N.3   119  THR119     -0.1203
     89  CA       -10.0580   27.5220   14.9320 C.3   119  THR119      0.1994
     90  C        -11.2970   28.3640   15.2280 C.2   119  THR119      0.2619
     91  O        -11.2220   29.4700   15.8080 O.2   119  THR119     -0.2717
     92  CB       -10.1000   26.2740   15.8450 C.3   119  THR119      0.1784
     93  OG1      -10.0410   26.6930   17.2140 O.3   119  THR119     -0.2211
     94  CG2       -8.9080   25.3360   15.5720 C.3   119  THR119      0.0376
     95  N        -12.4520   27.8440   14.8220 N.am  120  THR120     -0.1938
     96  CA       -13.7180   28.5140   15.1240 C.3   120  THR120      0.2028
     97  C        -13.9730   28.4460   16.6500 C.2   120  THR120      0.2642
     98  O        -14.7470   29.2350   17.1650 O.2   120  THR120     -0.2714
     99  CB       -14.8880   27.8930   14.3510 C.3   120  THR120      0.1808
    100  OG1      -14.8520   26.4910   14.5680 O.3   120  THR120     -0.2208
    101  CG2      -14.7660   28.1360   12.8390 C.3   120  THR120      0.0379
    102  N        -13.3130   27.5270   17.3800 N.am  121  GLY121     -0.1954
    103  CA       -13.4400   27.5730   18.8510 C.3   121  GLY121      0.1869
    104  C        -12.6830   28.7560   19.4270 C.2   121  GLY121      0.2309
    105  O        -13.1840   29.4360   20.3170 O.2   121  GLY121     -0.2863
    106  N         -5.6610   20.1610   19.0770 N.3   141  THR141     -0.1218
    107  CA        -6.7300   19.9830   20.0750 C.3   141  THR141      0.1862
    108  C         -6.3050   18.9620   21.1430 C.2   141  THR141      0.2287
    109  O         -6.7210   19.0690   22.3060 O.2   141  THR141     -0.2866
    110  CB        -8.0130   19.5570   19.3530 C.3   141  THR141      0.1770
    111  OG1       -8.3160   20.6030   18.4580 O.3   141  THR141     -0.2211
    112  CG2       -9.2270   19.3130   20.3380 C.3   141  THR141      0.0375
    113  N        -14.1870   23.1810   21.7570 N.3   158  THR158     -0.1203
    114  CA       -13.8610   22.3970   20.5520 C.3   158  THR158      0.1994
    115  C        -15.1260   21.8320   19.9100 C.2   158  THR158      0.2617
    116  O        -16.2150   22.0830   20.3860 O.2   158  THR158     -0.2717
    117  CB       -12.8140   21.2900   20.8410 C.3   158  THR158      0.1784
    118  OG1      -12.2980   20.7800   19.5900 O.3   158  THR158     -0.2211
    119  CG2      -13.4130   20.1630   21.6960 C.3   158  THR158      0.0376
    120  N        -14.9510   21.0110   18.8690 N.am  159  ASP159     -0.1973
    121  CA       -16.0900   20.5440   18.0630 C.3   159  ASP159      0.1709
    122  C        -16.8340   19.4450   18.7830 C.2   159  ASP159      0.2293
    123  O        -16.2110   18.6120   19.4600 O.2   159  ASP159     -0.2864
    124  CB       -15.5900   20.0460   16.6950 C.3   159  ASP159      0.1436
    125  CG       -15.0540   21.1680   15.8040 C.2   159  ASP159      0.3671
    126  OD1      -14.4670   22.1140   16.3360 O.co2 159  ASP159     -0.2456
    127  OD2      -15.1800   21.1060   14.5570 O.co2 159  ASP159     -0.2456
    128  N        -22.2260   24.8790   12.3210 N.3   187  GLU187     -0.1245
    129  CA       -21.0150   24.9170   11.4760 C.3   187  GLU187      0.1567
    130  C        -21.0950   23.7770   10.4920 C.2   187  GLU187      0.2260
    131  O        -21.6090   22.7040   10.8510 O.2   187  GLU187     -0.2867
    132  CB       -19.7460   24.7160   12.3540 C.3   187  GLU187      0.0388
    133  CG       -19.4680   25.9440   13.2330 C.3   187  GLU187      0.1160
    134  CD       -18.1770   25.8510   14.0490 C.2   187  GLU187      0.3649
    135  OE1      -17.1160   25.3860   13.5630 O.co2 187  GLU187     -0.2457
    136  OE2      -18.2420   26.2440   15.2290 O.co2 187  GLU187     -0.2457
    137  N        -18.6730   21.3430    7.8130 N.3   189  TYR189     -0.1241
    138  CA       -17.3060   21.0760    7.3690 C.3   189  TYR189      0.1605
    139  C        -17.2660   20.9710    5.8430 C.2   189  TYR189      0.2264
    140  O        -18.2510   20.5130    5.2380 O.2   189  TYR189     -0.2867
    141  CB       -16.7990   19.7320    7.8890 C.3   189  TYR189      0.0534
    142  CG       -16.6880   19.6340    9.3670 C.ar  189  TYR189     -0.0201
    143  CD1      -16.6720   20.7820   10.1850 C.ar  189  TYR189     -0.0009
    144  CD2      -16.5190   18.3900    9.9450 C.ar  189  TYR189     -0.0009
    145  CE1      -16.5510   20.6500   11.5870 C.ar  189  TYR189      0.0417
    146  CE2      -16.3520   18.2460   11.3250 C.ar  189  TYR189      0.0417
    147  CZ       -16.4120   19.3470   12.1270 C.ar  189  TYR189      0.1957
    148  OH       -16.2660   19.1240   13.4850 O.3   189  TYR189     -0.2866
@<TRIPOS>BOND
     1    62    61    2
     2    61    60    1
     3    60    63    1
     4    60    59    1
     5   140   139    2
     6    63    64    1
     7   139   138    1
     8    51    49    1
     9    64    65    1
    10    34    35    1
    11    50    48    1
    12   138   137    1
    13   138   141    1
    14    47    46    2
    15    48    49    1
    16    48    45    1
    17    65    66    1
    18    55    54    2
    19   141   142    1
    20    54    53    1
    21    46    45    1
    22    46    52   am
    23    38    35    1
    24    38    39    1
    25    35    36    1
    26    45    44    1
    27    44    42   am
    28    66    67    2
    29    53    52    1
    30    53    56    1
    31   142   144   ar
    32   142   143   ar
    33    40    36   am
    34    40    41    1
    35    36    37    2
    36    68    67    1
    37    23    22    2
    38     1     2    1
    39    67    69    1
    40   144   146   ar
    41    42    41    1
    42    42    43    2
    43   143   145   ar
    44    58    56    1
    45    56    57    1
    46   130   131    2
    47   130   129    1
    48    22    21    1
    49    32    33   ar
    50    32    30   ar
    51    33    31   ar
    52     2     5    1
    53     2     3    1
    54    30    27   ar
    55   146   147   ar
    56    21    20    1
    57    21    24    1
    58   129   128    1
    59   129   132    1
    60   145   147   ar
    61    31    29   ar
    62     5     6    1
    63     3     4    2
    64    27    29   ar
    65    27    25   ar
    66   147   148    1
    67    29    28   ar
    68   132   133    1
    69    25    24    1
    70    25    26   ar
    71   101    99    1
    72    28    26   ar
    73   133   134    1
    74     6     7   ar
    75     6     8   ar
    76   135   134   ar
    77   134   136   ar
    78    15    17   ar
    79    15    14   ar
    80    99   100    1
    81    99    96    1
    82    17    19   ar
    83   127   125   ar
    84    13    14    1
    85    13    10    1
    86    12    11    2
    87    95    96    1
    88    95    90   am
    89    89    88    1
    90    89    90    1
    91    89    92    1
    92    14    16   ar
    93    96    97    1
    94    90    91    2
    95    87    85   am
    96    94    92    1
    97    19    18   ar
    98    11    10    1
    99     9    10    1
   100   125   126   ar
   101   125   124    1
   102    92    93    1
   103    16    18   ar
   104    86    85    2
   105    85    84    1
   106    97    98    2
   107    97   102   am
   108   124   121    1
   109    78    76   am
   110    84    83    1
   111   102   103    1
   112    76    75    1
   113    76    77    2
   114    82    81    2
   115   121   122    1
   116   121   120    1
   117    70    71    1
   118    83    80    1
   119    75    74    1
   120    81    80    1
   121   111   110    1
   122   122   123    2
   123   103   104    1
   124   120   115   am
   125   106   107    1
   126    80    79    1
   127    71    74    1
   128    71    72    1
   129   110   107    1
   130   110   112    1
   131   104   105    2
   132   118   117    1
   133   115   116    2
   134   115   114    1
   135   107   108    1
   136    72    73    2
   137   114   117    1
   138   114   113    1
   139   117   119    1
   140   108   109    2
