@<TRIPOS>MOLECULE
tmp/2pvvA06.pdb
 135 130 0 0 0
SMALL
GASTEIGER

@<TRIPOS>ATOM
      1  N         21.7590   50.3020   36.1340 N.3   155  PHE155     -0.1227
      2  CA        20.5640   49.4420   36.0540 C.3   155  PHE155      0.1736
      3  C         20.2920   48.9730   34.6210 C.2   155  PHE155      0.2595
      4  O         20.2380   49.7780   33.6970 O.2   155  PHE155     -0.2718
      5  CB        19.3300   50.2010   36.5860 C.3   155  PHE155      0.0547
      6  CG        18.0200   49.4730   36.3990 C.ar  155  PHE155     -0.0202
      7  CD1       17.8230   48.1760   36.9080 C.ar  155  PHE155     -0.0042
      8  CD2       16.9540   50.1030   35.7350 C.ar  155  PHE155     -0.0042
      9  CE1       16.5910   47.5140   36.7470 C.ar  155  PHE155     -0.0003
     10  CE2       15.7280   49.4570   35.5930 C.ar  155  PHE155     -0.0003
     11  CZ        15.5530   48.1390   36.0840 C.ar  155  PHE155     -0.0000
     12  N         20.0830   47.6590   34.4670 N.am  156  ARG156     -0.1980
     13  CA        19.8280   47.0270   33.1400 C.3   156  ARG156      0.1597
     14  C         18.6300   47.5850   32.3680 C.2   156  ARG156      0.2287
     15  O         18.6080   47.5860   31.1210 O.2   156  ARG156     -0.2864
     16  CB        19.7180   45.5120   33.3150 C.3   156  ARG156      0.0334
     17  CG        18.4430   45.0250   34.0860 C.3   156  ARG156      0.0492
     18  CD        18.4800   43.5270   34.3890 C.3   156  ARG156      0.2205
     19  NE        19.1920   43.1410   35.6180 N.pl3 156  ARG156     -0.0865
     20  CZ        18.7770   43.4250   36.8610 C.cat 156  ARG156      0.5346
     21  NH1       17.6680   44.0910   37.0560 N.pl3 156  ARG156      0.1354
     22  NH2       19.4670   43.0320   37.9100 N.pl3 156  ARG156      0.1354
     23  N         17.0820   39.4190   35.7470 N.3   202  GLY202     -0.1210
     24  CA        16.5380   40.6400   36.2930 C.3   202  GLY202      0.1956
     25  C         15.5230   41.2930   35.3770 C.2   202  GLY202      0.2611
     26  O         15.6360   41.2360   34.1300 O.2   202  GLY202     -0.2717
     27  N         14.5550   42.0040   35.9540 N.am  203  ASN203     -0.1974
     28  CA        13.6130   42.6920   35.0610 C.3   203  ASN203      0.1688
     29  C         14.3060   43.8530   34.3420 C.2   203  ASN203      0.2292
     30  O         15.3160   44.3630   34.7660 O.2   203  ASN203     -0.2864
     31  CB        12.3560   43.2090   35.8410 C.3   203  ASN203      0.1181
     32  CG        12.6210   44.5580   36.5290 C.2   203  ASN203      0.2629
     33  OD1       12.3960   45.5760   35.9490 O.2   203  ASN203     -0.2716
     34  ND2       13.1650   44.5430   37.7110 N.am  203  ASN203     -0.0877
     35  N         20.4490   37.3940   47.9910 N.3   333  ASP333     -0.1239
     36  CA        19.4120   38.2670   47.5240 C.3   333  ASP333      0.1674
     37  C         18.0570   37.5470   47.3950 C.2   333  ASP333      0.2266
     38  O         17.8250   36.8830   46.4170 O.2   333  ASP333     -0.2867
     39  CB        19.8500   38.8610   46.1790 C.3   333  ASP333      0.1410
     40  CG        18.8470   39.8410   45.6560 C.2   333  ASP333      0.3668
     41  OD1       17.9030   40.1240   46.4160 O.co2 333  ASP333     -0.2456
     42  OD2       18.9240   40.2620   44.4900 O.co2 333  ASP333     -0.2456
     43  N          9.5170   42.0500   44.5970 N.3   370  GLU370     -0.1231
     44  CA        10.5270   43.1000   44.4580 C.3   370  GLU370      0.1699
     45  C         11.2560   42.9210   43.1430 C.2   370  GLU370      0.2592
     46  O         11.4540   43.8960   42.3890 O.2   370  GLU370     -0.2718
     47  CB        11.4600   43.0970   45.6380 C.3   370  GLU370      0.0402
     48  CG        12.4380   44.2800   45.7520 C.3   370  GLU370      0.1161
     49  CD        13.7180   44.1800   44.9040 C.2   370  GLU370      0.3649
     50  OE1       14.0440   43.1100   44.3220 O.co2 370  GLU370     -0.2457
     51  OE2       14.4150   45.2220   44.8150 O.co2 370  GLU370     -0.2457
     52  N         11.5810   41.6680   42.8030 N.am  371  GLU371     -0.1979
     53  CA        12.4310   41.4040   41.6090 C.3   371  GLU371      0.1602
     54  C         11.8010   41.8290   40.3050 C.2   371  GLU371      0.2287
     55  O         12.4950   42.0300   39.2810 O.2   371  GLU371     -0.2864
     56  CB        12.8350   39.9280   41.5220 C.3   371  GLU371      0.0415
     57  CG        13.7720   39.4020   42.7110 C.3   371  GLU371      0.1163
     58  CD        15.1420   40.1210   42.7870 C.2   371  GLU371      0.3649
     59  OE1       15.4590   41.0440   42.0080 O.co2 371  GLU371     -0.2457
     60  OE2       15.9420   39.7550   43.6300 O.co2 371  GLU371     -0.2457
     61  N          9.8950   44.5920   39.9970 N.3   373  GLY373     -0.1210
     62  CA         9.7210   46.0770   39.8640 C.3   373  GLY373      0.1956
     63  C          9.2190   46.6920   41.1880 C.2   373  GLY373      0.2611
     64  O          8.4000   47.6440   41.1850 O.2   373  GLY373     -0.2717
     65  N          9.6340   46.1430   42.3080 N.am  374  LEU374     -0.1979
     66  CA         9.2500   46.7060   43.6280 C.3   374  LEU374      0.1596
     67  C          7.7230   46.6420   43.7870 C.2   374  LEU374      0.2287
     68  O          7.1030   47.4870   44.4510 O.2   374  LEU374     -0.2864
     69  CB         9.7880   48.1710   43.8260 C.3   374  LEU374      0.0297
     70  CG        11.1610   48.5290   43.2500 C.3   374  LEU374      0.0022
     71  CD1       11.5760   50.0540   43.3960 C.3   374  LEU374      0.0001
     72  CD2       12.1670   47.5600   43.8770 C.3   374  LEU374      0.0001
     73  N         16.8910   44.3940   52.3750 N.3   399  ASP399     -0.1239
     74  CA        17.2990   43.4550   51.3600 C.3   399  ASP399      0.1674
     75  C         18.6450   42.8750   51.8440 C.2   399  ASP399      0.2266
     76  O         18.9710   42.9810   53.0310 O.2   399  ASP399     -0.2867
     77  CB        17.4260   44.1370   49.9690 C.3   399  ASP399      0.1410
     78  CG        17.2460   43.1330   48.8120 C.2   399  ASP399      0.3668
     79  OD1       17.2320   41.9290   49.0890 O.co2 399  ASP399     -0.2456
     80  OD2       17.1530   43.5210   47.6240 O.co2 399  ASP399     -0.2456
     81  N         15.8200   51.0530   42.8420 N.3   464  GLY464     -0.1210
     82  CA        16.4100   49.6780   42.7340 C.3   464  GLY464      0.1956
     83  C         16.1480   48.9020   44.0130 C.2   464  GLY464      0.2611
     84  O         16.7320   47.8450   44.2280 O.2   464  GLY464     -0.2717
     85  N         15.2660   49.4170   44.8950 N.am  465  ASN465     -0.1974
     86  CA        14.8960   48.6370   46.0790 C.3   465  ASN465      0.1688
     87  C         13.6460   49.1970   46.7700 C.2   465  ASN465      0.2292
     88  O         13.1710   50.2520   46.4000 O.2   465  ASN465     -0.2864
     89  CB        16.0760   48.3870   47.0530 C.3   465  ASN465      0.1181
     90  CG        16.1600   46.8910   47.5150 C.2   465  ASN465      0.2629
     91  OD1       15.3470   46.4200   48.3120 O.2   465  ASN465     -0.2716
     92  ND2       17.1200   46.1520   46.9570 N.am  465  ASN465     -0.0877
     93  N         25.4240   37.5460   41.6560 N.3   498  TYR498     -0.1227
     94  CA        24.1420   38.2580   41.7250 C.3   498  TYR498      0.1736
     95  C         23.1110   37.7500   40.7090 C.2   498  TYR498      0.2595
     96  O         23.3350   37.8450   39.4610 O.2   498  TYR498     -0.2718
     97  CB        24.4260   39.7740   41.5720 C.3   498  TYR498      0.0548
     98  CG        23.2490   40.7190   41.4680 C.ar  498  TYR498     -0.0200
     99  CD1       22.4040   40.9130   42.5450 C.ar  498  TYR498     -0.0009
    100  CD2       23.0250   41.4630   40.2930 C.ar  498  TYR498     -0.0009
    101  CE1       21.3090   41.8030   42.4690 C.ar  498  TYR498      0.0417
    102  CE2       21.9620   42.4010   40.2150 C.ar  498  TYR498      0.0417
    103  CZ        21.1100   42.5440   41.2950 C.ar  498  TYR498      0.1957
    104  OH        20.0500   43.4300   41.2270 O.3   498  TYR498     -0.2866
    105  N         21.9870   37.2550   41.2390 N.am  499  HIS499     -0.1975
    106  CA        20.7990   36.8460   40.4140 C.3   499  HIS499      0.1656
    107  C         21.0210   35.5710   39.5650 C.2   499  HIS499      0.2291
    108  O         20.3050   35.3190   38.5800 O.2   499  HIS499     -0.2864
    109  CB        20.2750   37.9940   39.5170 C.3   499  HIS499      0.0771
    110  CG        19.5100   39.0870   40.2450 C.ar  499  HIS499      0.0820
    111  ND1       18.9560   40.1570   39.5740 N.ar  499  HIS499     -0.2267
    112  CD2       19.2340   39.2930   41.5580 C.ar  499  HIS499      0.1154
    113  CE1       18.3250   40.9490   40.4260 C.ar  499  HIS499      0.1986
    114  NE2       18.4660   40.4440   41.6300 N.ar  499  HIS499     -0.2212
    115  N         18.9010   54.0830   37.5400 N.3   643  LYS643     -0.1231
    116  CA        17.9310   54.1770   38.6520 C.3   643  LYS643      0.1693
    117  C         18.4960   53.7400   40.0020 C.2   643  LYS643      0.2592
    118  O         17.9730   54.1190   41.0510 O.2   643  LYS643     -0.2718
    119  CB        16.5800   53.4760   38.3430 C.3   643  LYS643      0.0285
    120  CG        16.4320   52.0730   38.8530 C.3   643  LYS643      0.0035
    121  CD        15.0850   51.4650   38.3600 C.3   643  LYS643      0.0206
    122  CE        13.9130   51.7820   39.2440 C.3   643  LYS643      0.1093
    123  NZ        12.7380   50.8300   38.9990 N.3   643  LYS643     -0.1314
    124  N         19.5820   52.9680   39.9760 N.am  644  TYR644     -0.1976
    125  CA        20.2600   52.5920   41.2290 C.3   644  TYR644      0.1639
    126  C         20.9730   53.7370   41.9690 C.2   644  TYR644      0.2290
    127  O         21.2020   53.6410   43.1740 O.2   644  TYR644     -0.2864
    128  CB        21.3080   51.5090   40.9550 C.3   644  TYR644      0.0560
    129  CG        20.7880   50.1370   40.4880 C.ar  644  TYR644     -0.0198
    130  CD1       19.4980   49.6790   40.8070 C.ar  644  TYR644     -0.0009
    131  CD2       21.6660   49.2560   39.8010 C.ar  644  TYR644     -0.0009
    132  CE1       19.0520   48.3530   40.3950 C.ar  644  TYR644      0.0417
    133  CE2       21.2600   47.9550   39.3920 C.ar  644  TYR644      0.0417
    134  CZ        19.9610   47.5120   39.6960 C.ar  644  TYR644      0.1957
    135  OH        19.6140   46.2390   39.2910 O.3   644  TYR644     -0.2866
@<TRIPOS>BOND
     1    15    14    2
     2    14    13    1
     3    13    16    1
     4    13    12    1
     5    16    17    1
     6     4     3    2
     7    17    18    1
     8    26    25    2
     9    29    30    2
    10    29    28    1
    11    18    19    1
    12    12     3   am
    13     3     2    1
    14    28    31    1
    15    28    27    1
    16    25    27   am
    17    25    24    1
    18    10     8   ar
    19    10    11   ar
    20    19    20    2
    21     8     6   ar
    22    23    24    1
    23    31    32    1
    24    33    32    2
    25     2     1    1
    26     2     5    1
    27    11     9   ar
    28     6     5    1
    29     6     7   ar
    30    32    34   am
    31     9     7   ar
    32    20    21    1
    33    20    22    1
    34   115   116    1
    35   119   116    1
    36   119   120    1
    37   121   120    1
    38   121   122    1
    39   108   107    2
    40   116   117    1
    41   123   122    1
    42    55    54    2
    43   135   134    1
    44   133   134   ar
    45   133   131   ar
    46    96    95    2
    47   109   110    1
    48   109   106    1
    49   107   106    1
    50   111   110   ar
    51   111   113   ar
    52   134   132   ar
    53   131   129   ar
    54    62    61    1
    55    62    63    1
    56   124   117   am
    57   124   125    1
    58   117   118    2
    59   102   100   ar
    60   102   103   ar
    61   110   112   ar
    62   100    98   ar
    63    54    53    1
    64   132   130   ar
    65   106   105    1
    66   113   114   ar
    67   129   130   ar
    68   129   128    1
    69    95   105   am
    70    95    94    1
    71   128   125    1
    72    64    63    2
    73    63    65   am
    74   104   103    1
    75   125   126    1
    76   103   101   ar
    77    98    97    1
    78    98    99   ar
    79    56    53    1
    80    56    57    1
    81   112   114   ar
    82    97    94    1
    83    53    52    1
    84    93    94    1
    85   126   127    2
    86    59    58   ar
    87    65    66    1
    88    46    45    2
    89   101    99   ar
    90    57    58    1
    91    82    81    1
    92    82    83    1
    93    58    60   ar
    94    52    45   am
    95    45    44    1
    96    70    71    1
    97    70    69    1
    98    70    72    1
    99    66    67    1
   100    66    69    1
   101    67    68    2
   102    83    84    2
   103    83    85   am
   104    50    49   ar
   105    44    43    1
   106    44    47    1
   107    42    40   ar
   108    51    49   ar
   109    85    86    1
   110    49    48    1
   111    47    48    1
   112    40    39    1
   113    40    41   ar
   114    86    87    1
   115    86    89    1
   116    39    36    1
   117    88    87    2
   118    38    37    2
   119    92    90   am
   120    89    90    1
   121    37    36    1
   122    90    91    2
   123    36    35    1
   124    80    78   ar
   125    78    79   ar
   126    78    77    1
   127    77    74    1
   128    74    75    1
   129    74    73    1
   130    75    76    2
