@<TRIPOS>MOLECULE
tmp/2pvwA06.pdb
 152 146 0 0 0
SMALL
GASTEIGER

@<TRIPOS>ATOM
      1  N         21.8650   50.5020   36.2560 N.3   154  PHE154     -0.1227
      2  CA        20.6820   49.5880   36.1930 C.3   154  PHE154      0.1736
      3  C         20.4240   49.0940   34.7550 C.2   154  PHE154      0.2595
      4  O         20.4300   49.8720   33.7670 O.2   154  PHE154     -0.2718
      5  CB        19.4330   50.3260   36.7330 C.3   154  PHE154      0.0547
      6  CG        18.1720   49.5630   36.5700 C.ar  154  PHE154     -0.0202
      7  CD1       18.0100   48.3210   37.2260 C.ar  154  PHE154     -0.0042
      8  CD2       17.0710   50.1740   35.9240 C.ar  154  PHE154     -0.0042
      9  CE1       16.8370   47.6390   37.0960 C.ar  154  PHE154     -0.0003
     10  CE2       15.8890   49.4510   35.7800 C.ar  154  PHE154     -0.0003
     11  CZ        15.8090   48.1810   36.3780 C.ar  154  PHE154     -0.0000
     12  N         20.1350   47.7880   34.6250 N.am  155  ARG155     -0.1980
     13  CA        19.9530   47.2060   33.2740 C.3   155  ARG155      0.1597
     14  C         18.7600   47.7860   32.5020 C.2   155  ARG155      0.2287
     15  O         18.7420   47.8240   31.2750 O.2   155  ARG155     -0.2864
     16  CB        19.8850   45.6730   33.4040 C.3   155  ARG155      0.0334
     17  CG        18.6430   45.1910   34.1350 C.3   155  ARG155      0.0492
     18  CD        18.6710   43.6440   34.3560 C.3   155  ARG155      0.2205
     19  NE        19.3970   43.2430   35.5660 N.pl3 155  ARG155     -0.0865
     20  CZ        18.9750   43.4390   36.8160 C.cat 155  ARG155      0.5346
     21  NH1       17.7930   43.9830   37.0180 N.pl3 155  ARG155      0.1354
     22  NH2       19.7080   43.0350   37.8420 N.pl3 155  ARG155      0.1354
     23  N         14.8550   42.2280   36.0030 N.3   202  ASN202     -0.1240
     24  CA        13.8560   42.9230   35.1990 C.3   202  ASN202      0.1653
     25  C         14.4650   44.1090   34.4720 C.2   202  ASN202      0.2266
     26  O         15.4750   44.6330   34.8760 O.2   202  ASN202     -0.2867
     27  CB        12.6540   43.3650   36.0990 C.3   202  ASN202      0.1155
     28  CG        12.8700   44.7390   36.7870 C.2   202  ASN202      0.2627
     29  OD1       12.7920   45.7770   36.1460 O.2   202  ASN202     -0.2716
     30  ND2       13.1140   44.7380   38.0960 N.am  202  ASN202     -0.0877
     31  N         12.5140   42.5660   51.1020 N.3   322  HIS322     -0.1241
     32  CA        11.6960   41.6280   50.2980 C.3   322  HIS322      0.1621
     33  C         12.0310   40.1740   50.5990 C.2   322  HIS322      0.2264
     34  O         13.0640   39.8930   51.2420 O.2   322  HIS322     -0.2867
     35  CB        11.7840   41.9660   48.7920 C.3   322  HIS322      0.0745
     36  CG        13.1150   41.6680   48.1350 C.ar  322  HIS322      0.0817
     37  ND1       13.2480   40.5880   47.2900 N.ar  322  HIS322     -0.2268
     38  CD2       14.2460   42.3890   48.0030 C.ar  322  HIS322      0.1154
     39  CE1       14.4370   40.6230   46.7170 C.ar  322  HIS322      0.1986
     40  NE2       15.0890   41.6770   47.1870 N.ar  322  HIS322     -0.2212
     41  N         20.6570   37.7150   48.0970 N.3   332  ASP332     -0.1239
     42  CA        19.5530   38.6580   47.6870 C.3   332  ASP332      0.1674
     43  C         18.2330   37.9170   47.5370 C.2   332  ASP332      0.2266
     44  O         18.0090   37.2200   46.5350 O.2   332  ASP332     -0.2867
     45  CB        19.9790   39.2980   46.3650 C.3   332  ASP332      0.1410
     46  CG        18.9810   40.2680   45.8270 C.2   332  ASP332      0.3668
     47  OD1       18.1220   40.7200   46.6390 O.co2 332  ASP332     -0.2456
     48  OD2       19.0660   40.5140   44.5910 O.co2 332  ASP332     -0.2456
     49  N          9.5730   42.2230   44.6840 N.3   369  GLU369     -0.1231
     50  CA        10.5610   43.3280   44.6270 C.3   369  GLU369      0.1699
     51  C         11.3750   43.1670   43.3620 C.2   369  GLU369      0.2592
     52  O         11.7090   44.1360   42.6390 O.2   369  GLU369     -0.2718
     53  CB        11.4310   43.3580   45.8680 C.3   369  GLU369      0.0402
     54  CG        12.3280   44.6100   45.9580 C.3   369  GLU369      0.1161
     55  CD        13.7120   44.4490   45.3590 C.2   369  GLU369      0.3649
     56  OE1       14.0450   43.3580   44.7800 O.co2 369  GLU369     -0.2457
     57  OE2       14.5270   45.3940   45.5200 O.co2 369  GLU369     -0.2457
     58  N         11.6510   41.9060   42.9910 N.am  370  GLU370     -0.1979
     59  CA        12.5240   41.7050   41.8380 C.3   370  GLU370      0.1602
     60  C         11.8670   42.0660   40.5160 C.2   370  GLU370      0.2287
     61  O         12.5650   42.2140   39.5010 O.2   370  GLU370     -0.2864
     62  CB        13.0160   40.2120   41.7650 C.3   370  GLU370      0.0415
     63  CG        13.9050   39.7890   42.9350 C.3   370  GLU370      0.1163
     64  CD        15.3110   40.4230   42.9100 C.2   370  GLU370      0.3649
     65  OE1       15.5870   41.2670   42.0290 O.co2 370  GLU370     -0.2457
     66  OE2       16.1330   40.0930   43.7930 O.co2 370  GLU370     -0.2457
     67  N         10.1510   44.8050   40.0820 N.3   372  GLY372     -0.1210
     68  CA         9.9840   46.2660   40.0300 C.3   372  GLY372      0.1956
     69  C          9.4310   46.9190   41.2920 C.2   372  GLY372      0.2611
     70  O          8.6570   47.9210   41.1920 O.2   372  GLY372     -0.2717
     71  N          9.7670   46.3600   42.4390 N.am  373  LEU373     -0.1979
     72  CA         9.3360   46.9660   43.7460 C.3   373  LEU373      0.1596
     73  C          7.8220   46.9090   43.8580 C.2   373  LEU373      0.2287
     74  O          7.1700   47.7980   44.4280 O.2   373  LEU373     -0.2864
     75  CB         9.8430   48.4590   43.8070 C.3   373  LEU373      0.0297
     76  CG        11.2610   48.6890   43.3060 C.3   373  LEU373      0.0022
     77  CD1       11.6210   50.2290   43.5930 C.3   373  LEU373      0.0001
     78  CD2       12.2890   47.8010   44.0360 C.3   373  LEU373      0.0001
     79  N         17.1720   44.7180   52.6330 N.3   398  ASP398     -0.1239
     80  CA        17.5380   43.7260   51.5850 C.3   398  ASP398      0.1674
     81  C         18.8910   43.1330   51.9930 C.2   398  ASP398      0.2266
     82  O         19.2580   43.2200   53.1730 O.2   398  ASP398     -0.2867
     83  CB        17.6030   44.3610   50.2110 C.3   398  ASP398      0.1410
     84  CG        17.4560   43.3420   49.0710 C.2   398  ASP398      0.3668
     85  OD1       17.5180   42.1590   49.3730 O.co2 398  ASP398     -0.2456
     86  OD2       17.3460   43.7420   47.8820 O.co2 398  ASP398     -0.2456
     87  N         15.8620   51.4150   43.1320 N.3   463  GLY463     -0.1210
     88  CA        16.4250   50.0790   42.9890 C.3   463  GLY463      0.1956
     89  C         16.1740   49.2520   44.2470 C.2   463  GLY463      0.2611
     90  O         16.8140   48.2200   44.4440 O.2   463  GLY463     -0.2717
     91  N         15.3560   49.7460   45.1870 N.am  464  ASN464     -0.1974
     92  CA        14.9580   48.9360   46.3560 C.3   464  ASN464      0.1688
     93  C         13.6880   49.4440   47.0130 C.2   464  ASN464      0.2292
     94  O         13.1740   50.4670   46.5850 O.2   464  ASN464     -0.2864
     95  CB        16.0880   48.7110   47.3470 C.3   464  ASN464      0.1181
     96  CG        16.1620   47.2390   47.7700 C.2   464  ASN464      0.2629
     97  OD1       15.2680   46.7330   48.4840 O.2   464  ASN464     -0.2716
     98  ND2       17.1700   46.5140   47.2000 N.am  464  ASN464     -0.0877
     99  N         19.2640   52.8440   54.7210 N.3   479  ARG479     -0.1245
    100  CA        19.6780   51.4400   54.5090 C.3   479  ARG479      0.1563
    101  C         21.1600   51.2720   54.9350 C.2   479  ARG479      0.2260
    102  O         21.9510   52.2050   54.8560 O.2   479  ARG479     -0.2867
    103  CB        19.4570   51.0480   53.0610 C.3   479  ARG479      0.0307
    104  CG        20.2630   51.7880   52.0900 C.3   479  ARG479      0.0489
    105  CD        19.7740   51.5950   50.6250 C.3   479  ARG479      0.2205
    106  NE        19.7410   50.1790   50.2160 N.pl3 479  ARG479     -0.0865
    107  CZ        19.8290   49.7490   48.9600 C.cat 479  ARG479      0.5346
    108  NH1       19.7540   48.4410   48.7220 N.pl3 479  ARG479      0.1354
    109  NH2       19.9370   50.6000   47.9440 N.pl3 479  ARG479      0.1354
    110  N         25.6390   37.5860   41.6390 N.3   494  TYR494     -0.1227
    111  CA        24.3250   38.2910   41.6750 C.3   494  TYR494      0.1736
    112  C         23.2650   37.7130   40.6950 C.2   494  TYR494      0.2595
    113  O         23.4760   37.7070   39.4540 O.2   494  TYR494     -0.2718
    114  CB        24.6420   39.7880   41.3990 C.3   494  TYR494      0.0548
    115  CG        23.4500   40.7460   41.3510 C.ar  494  TYR494     -0.0200
    116  CD1       22.5800   40.8700   42.4470 C.ar  494  TYR494     -0.0009
    117  CD2       23.2640   41.5610   40.2490 C.ar  494  TYR494     -0.0009
    118  CE1       21.4940   41.7940   42.3850 C.ar  494  TYR494      0.0417
    119  CE2       22.1850   42.4710   40.1980 C.ar  494  TYR494      0.0417
    120  CZ        21.3230   42.5470   41.2290 C.ar  494  TYR494      0.1957
    121  OH        20.2630   43.4800   41.1620 O.3   494  TYR494     -0.2866
    122  N         22.1200   37.2710   41.2120 N.am  495  HIS495     -0.1975
    123  CA        20.9500   36.8520   40.4370 C.3   495  HIS495      0.1656
    124  C         21.1980   35.5650   39.6000 C.2   495  HIS495      0.2291
    125  O         20.4610   35.2880   38.6540 O.2   495  HIS495     -0.2864
    126  CB        20.4470   37.9810   39.5140 C.3   495  HIS495      0.0771
    127  CG        19.6860   39.0630   40.2460 C.ar  495  HIS495      0.0820
    128  ND1       19.0790   40.1130   39.5820 N.ar  495  HIS495     -0.2267
    129  CD2       19.4140   39.2350   41.5670 C.ar  495  HIS495      0.1154
    130  CE1       18.4600   40.8890   40.4650 C.ar  495  HIS495      0.1986
    131  NE2       18.6310   40.3820   41.6770 N.ar  495  HIS495     -0.2212
    132  N         19.0190   54.2720   37.5580 N.3   639  LYS639     -0.1231
    133  CA        18.0560   54.1830   38.6850 C.3   639  LYS639      0.1693
    134  C         18.7110   53.9020   40.0300 C.2   639  LYS639      0.2592
    135  O         18.1800   54.3210   41.0690 O.2   639  LYS639     -0.2718
    136  CB        17.0830   53.0430   38.3280 C.3   639  LYS639      0.0285
    137  CG        15.9760   52.8590   39.2520 C.3   639  LYS639      0.0035
    138  CD        15.1170   51.6720   38.8250 C.3   639  LYS639      0.0206
    139  CE        13.7610   51.8470   39.5280 C.3   639  LYS639      0.1093
    140  NZ        12.7240   50.8060   39.1910 N.3   639  LYS639     -0.1314
    141  N         19.8320   53.1900   40.0520 N.am  640  TYR640     -0.1976
    142  CA        20.4590   52.8140   41.3300 C.3   640  TYR640      0.1639
    143  C         21.1260   53.9860   42.0540 C.2   640  TYR640      0.2290
    144  O         21.3570   53.9000   43.2310 O.2   640  TYR640     -0.2864
    145  CB        21.5780   51.8410   41.0720 C.3   640  TYR640      0.0560
    146  CG        21.1590   50.4500   40.6010 C.ar  640  TYR640     -0.0198
    147  CD1       19.9820   49.8580   41.0590 C.ar  640  TYR640     -0.0009
    148  CD2       22.0360   49.6980   39.7870 C.ar  640  TYR640     -0.0009
    149  CE1       19.5960   48.5280   40.6510 C.ar  640  TYR640      0.0417
    150  CE2       21.6780   48.3730   39.3770 C.ar  640  TYR640      0.0417
    151  CZ        20.4870   47.8090   39.8410 C.ar  640  TYR640      0.1957
    152  OH        20.0990   46.5280   39.4680 O.3   640  TYR640     -0.2866
@<TRIPOS>BOND
     1    15    14    2
     2    14    13    1
     3    13    16    1
     4    13    12    1
     5    16    17    1
     6     4     3    2
     7    17    18    1
     8    18    19    1
     9    25    26    2
    10    25    24    1
    11    12     3   am
    12     3     2    1
    13    24    23    1
    14    24    27    1
    15    19    20    2
    16    10     8   ar
    17    10    11   ar
    18     8     6   ar
    19    27    28    1
    20    29    28    2
    21     2     1    1
    22     2     5    1
    23    11     9   ar
    24     6     5    1
    25     6     7   ar
    26    28    30   am
    27    20    21    1
    28    20    22    1
    29     9     7   ar
    30   132   133    1
    31   136   133    1
    32   136   137    1
    33   125   124    2
    34   133   134    1
    35   138   137    1
    36   138   139    1
    37   140   139    1
    38   150   148   ar
    39   150   151   ar
    40   113   112    2
    41   152   151    1
    42    61    60    2
    43   126   127    1
    44   126   123    1
    45   128   127   ar
    46   128   130   ar
    47   124   123    1
    48   148   146   ar
    49   151   149   ar
    50    68    67    1
    51    68    69    1
    52   134   141   am
    53   134   135    2
    54   141   142    1
    55   119   117   ar
    56   119   120   ar
    57   127   129   ar
    58   117   115   ar
    59   123   122    1
    60   130   131   ar
    61    60    59    1
    62   146   147   ar
    63   146   145    1
    64   149   147   ar
    65   112   122   am
    66   112   111    1
    67   145   142    1
    68   121   120    1
    69    70    69    2
    70   120   118   ar
    71    69    71   am
    72   142   143    1
    73   115   114    1
    74   115   116   ar
    75   114   111    1
    76   129   131   ar
    77   110   111    1
    78    62    59    1
    79    62    63    1
    80    59    58    1
    81    65    64   ar
    82   143   144    2
    83   118   116   ar
    84    71    72    1
    85    52    51    2
    86    64    63    1
    87    64    66   ar
    88    88    87    1
    89    88    89    1
    90    58    51   am
    91    76    77    1
    92    76    75    1
    93    76    78    1
    94    51    50    1
    95    72    75    1
    96    72    73    1
    97    73    74    2
    98    89    90    2
    99    89    91   am
   100    48    46   ar
   101    50    49    1
   102    50    53    1
   103    56    55   ar
   104    91    92    1
   105    55    57   ar
   106    55    54    1
   107    46    45    1
   108    46    47   ar
   109    53    54    1
   110    92    93    1
   111    92    95    1
   112    45    42    1
   113    44    43    2
   114    94    93    2
   115    39    40   ar
   116    39    37   ar
   117    40    38   ar
   118    98    96   am
   119    37    36   ar
   120    95    96    1
   121    43    42    1
   122    42    41    1
   123    96    97    2
   124    86    84   ar
   125   109   107    1
   126    38    36   ar
   127    36    35    1
   128   108   107    1
   129    35    32    1
   130   107   106    2
   131    84    85   ar
   132    84    83    1
   133    83    80    1
   134   106   105    1
   135    32    33    1
   136    32    31    1
   137    33    34    2
   138   105   104    1
   139    80    81    1
   140    80    79    1
   141    81    82    2
   142   104   103    1
   143   103   100    1
   144   100    99    1
   145   100   101    1
   146   102   101    2
