@<TRIPOS>MOLECULE
tmp/2pvyA00.pdb
 101 93 0 0 0
SMALL
GASTEIGER

@<TRIPOS>ATOM
      1  N         -9.1880   43.8410   66.9090 N.3    21  LEU21      -0.1245
      2  CA        -7.8980   43.9360   66.2500 C.3    21  LEU21       0.1561
      3  C         -7.2270   42.5730   66.2310 C.2    21  LEU21       0.2260
      4  O         -6.5470   42.2320   65.2660 O.2    21  LEU21      -0.2867
      5  CB        -7.0080   44.9350   66.9860 C.3    21  LEU21       0.0270
      6  CG        -7.5630   46.3570   67.1060 C.3    21  LEU21       0.0019
      7  CD1       -6.6120   47.2180   67.9190 C.3    21  LEU21       0.0001
      8  CD2       -7.7600   46.9400   65.7240 C.3    21  LEU21       0.0001
      9  N         -9.3090   42.6960   72.1860 N.3    23  VAL23      -0.1245
     10  CA        -9.0710   44.1270   72.0090 C.3    23  VAL23       0.1561
     11  C         -9.7690   44.5820   70.7300 C.2    23  VAL23       0.2260
     12  O         -9.5240   44.0200   69.6690 O.2    23  VAL23      -0.2867
     13  CB        -7.5510   44.4230   71.8820 C.3    23  VAL23       0.0252
     14  CG1       -7.3200   45.9060   71.6210 C.3    23  VAL23       0.0019
     15  CG2       -6.8310   43.9860   73.1470 C.3    23  VAL23       0.0019
     16  N         -7.7410   51.8320   71.2800 N.3    43  ALA43      -0.1245
     17  CA        -7.8840   50.3900   71.3650 C.3    43  ALA43       0.1562
     18  C         -8.5650   50.1130   72.7020 C.2    43  ALA43       0.2260
     19  O         -8.2130   50.7130   73.7150 O.2    43  ALA43      -0.2867
     20  CB        -6.5170   49.7200   71.3120 C.3    43  ALA43       0.0290
     21  N          2.9690   51.8540   75.6200 N.3    76  ILE76      -0.1245
     22  CA         1.5820   52.0370   75.2080 C.3    76  ILE76       0.1561
     23  C          0.9140   52.7110   76.4040 C.2    76  ILE76       0.2260
     24  O          0.9880   52.2080   77.5240 O.2    76  ILE76      -0.2867
     25  CB         0.9040   50.6610   74.8940 C.3    76  ILE76       0.0252
     26  CG1        0.9620   50.3860   73.3910 C.3    76  ILE76       0.0019
     27  CG2       -0.5360   50.6450   75.3480 C.3    76  ILE76       0.0019
     28  CD1        0.2570   51.4420   72.5370 C.3    76  ILE76       0.0001
     29  N         -6.7890   52.0030   75.8150 N.3    92  VAL92      -0.1231
     30  CA        -5.3910   52.3530   75.6210 C.3    92  VAL92       0.1692
     31  C         -5.1410   52.9510   74.2470 C.2    92  VAL92       0.2592
     32  O         -5.9840   52.8790   73.3530 O.2    92  VAL92      -0.2718
     33  CB        -4.4660   51.1260   75.7720 C.3    92  VAL92       0.0266
     34  CG1       -4.7130   50.4550   77.1010 C.3    92  VAL92       0.0020
     35  CG2       -4.6940   50.1510   74.6250 C.3    92  VAL92       0.0020
     36  N         -3.9660   53.5410   74.0900 N.am   93  GLU93      -0.1966
     37  CA        -3.5720   54.1430   72.8280 C.3    93  GLU93       0.1733
     38  C         -3.5820   53.0950   71.7080 C.2    93  GLU93       0.2616
     39  O         -3.2100   51.9370   71.9160 O.2    93  GLU93      -0.2715
     40  CB        -2.1710   54.7530   72.9790 C.3    93  GLU93       0.0429
     41  CG        -1.4460   55.0220   71.6710 C.3    93  GLU93       0.1163
     42  CD        -0.0610   55.6290   71.8680 C.2    93  GLU93       0.3649
     43  OE1        0.6550   55.2200   72.8130 O.co2  93  GLU93      -0.2457
     44  OE2        0.3140   56.5060   71.0610 O.co2  93  GLU93      -0.2457
     45  N         -4.0100   53.5090   70.5210 N.am   94  TYR94      -0.1960
     46  CA        -4.0520   52.6130   69.3680 C.3    94  TYR94       0.1771
     47  C         -2.7440   52.7210   68.5810 C.2    94  TYR94       0.2619
     48  O         -2.2680   53.8190   68.3170 O.2    94  TYR94      -0.2715
     49  CB        -5.2330   52.9790   68.4650 C.3    94  TYR94       0.0574
     50  CG        -5.2010   52.3090   67.1130 C.ar   94  TYR94      -0.0198
     51  CD1       -5.3460   50.9270   66.9900 C.ar   94  TYR94      -0.0009
     52  CD2       -4.9900   53.0530   65.9550 C.ar   94  TYR94      -0.0009
     53  CE1       -5.2770   50.3030   65.7410 C.ar   94  TYR94       0.0417
     54  CE2       -4.9190   52.4390   64.7020 C.ar   94  TYR94       0.0417
     55  CZ        -5.0600   51.0700   64.6030 C.ar   94  TYR94       0.1957
     56  OH        -4.9670   50.4680   63.3710 O.3    94  TYR94      -0.2866
     57  N         -2.1680   51.5790   68.2180 N.am   95  ALA95      -0.1977
     58  CA        -0.9260   51.5430   67.4510 C.3    95  ALA95       0.1597
     59  C         -1.2420   50.9400   66.0690 C.2    95  ALA95       0.2287
     60  O         -1.3950   49.7300   65.9190 O.2    95  ALA95      -0.2864
     61  CB         0.1310   50.6960   68.1850 C.3    95  ALA95       0.0319
     62  N          0.3530   47.4010   64.4310 N.3    98  GLY98      -0.1210
     63  CA         0.3550   46.1210   65.1280 C.3    98  GLY98       0.1956
     64  C          1.6040   45.7650   65.9100 C.2    98  GLY98       0.2611
     65  O          2.4290   46.6270   66.2090 O.2    98  GLY98      -0.2717
     66  N          1.7500   44.4790   66.2280 N.am   99  ASN99      -0.1974
     67  CA         2.8940   44.0180   67.0030 C.3    99  ASN99       0.1688
     68  C          4.1760   43.9210   66.1950 C.2    99  ASN99       0.2292
     69  O          4.1620   43.6310   64.9990 O.2    99  ASN99      -0.2864
     70  CB         2.5850   42.6760   67.6920 C.3    99  ASN99       0.1181
     71  CG         2.5270   41.5080   66.7270 C.2    99  ASN99       0.2629
     72  OD1        3.5430   41.0790   66.1870 O.2    99  ASN99      -0.2716
     73  ND2        1.3210   40.9810   66.5110 N.am   99  ASN99      -0.0877
     74  N          5.0900   40.8310   63.7810 N.3   102  GLU102     -0.1245
     75  CA         4.4530   40.8770   62.4680 C.3   102  GLU102      0.1567
     76  C          5.0290   42.0380   61.6490 C.2   102  GLU102      0.2260
     77  O          5.2710   41.9210   60.4450 O.2   102  GLU102     -0.2867
     78  CB         2.9470   41.0420   62.6430 C.3   102  GLU102      0.0388
     79  CG         2.3080   39.9170   63.4520 C.3   102  GLU102      0.1160
     80  CD         0.8450   40.1940   63.8020 C.2   102  GLU102      0.3649
     81  OE1        0.1110   39.2210   64.1070 O.co2 102  GLU102     -0.2457
     82  OE2        0.4320   41.3830   63.7860 O.co2 102  GLU102     -0.2457
     83  N          6.0690   40.0030   70.2340 N.3   154  ARG154     -0.1245
     84  CA         4.6000   39.9770   70.1290 C.3   154  ARG154      0.1563
     85  C          3.9310   40.9580   71.0920 C.2   154  ARG154      0.2260
     86  O          2.7590   41.3030   70.9260 O.2   154  ARG154     -0.2867
     87  CB         4.0580   38.5680   70.4200 C.3   154  ARG154      0.0307
     88  CG         4.6570   37.9610   71.6860 C.3   154  ARG154      0.0489
     89  CD         3.7000   37.0610   72.4520 C.3   154  ARG154      0.2205
     90  NE         4.3230   36.6510   73.7130 N.pl3 154  ARG154     -0.0865
     91  CZ         5.3140   35.7730   73.7840 C.cat 154  ARG154      0.5346
     92  NH1        5.7680   35.2110   72.6770 N.pl3 154  ARG154      0.1354
     93  NH2        5.8830   35.4990   74.9440 N.pl3 154  ARG154      0.1354
     94  N          4.2230   47.0880   70.4460 N.3   157  LEU157     -0.1245
     95  CA         3.3760   47.6350   69.3990 C.3   157  LEU157      0.1561
     96  C          4.1530   48.7150   68.6560 C.2   157  LEU157      0.2260
     97  O          5.0290   49.3780   69.2290 O.2   157  LEU157     -0.2867
     98  CB         2.0850   48.2110   69.9760 C.3   157  LEU157      0.0270
     99  CG         1.1540   47.2050   70.6560 C.3   157  LEU157      0.0019
    100  CD1       -0.0730   47.9200   71.1880 C.3   157  LEU157      0.0001
    101  CD2        0.7550   46.1150   69.6650 C.3   157  LEU157      0.0001
@<TRIPOS>BOND
     1    77    76    2
     2    76    75    1
     3    75    78    1
     4    75    74    1
     5    78    79    1
     6    56    55    1
     7    79    80    1
     8    82    80   ar
     9    80    81   ar
    10    62    63    1
    11    55    54   ar
    12    55    53   ar
    13    54    52   ar
    14    69    68    2
    15    63    64    1
    16     4     3    2
    17     8     6    1
    18    53    51   ar
    19    64    65    2
    20    64    66   am
    21    60    59    2
    22    52    50   ar
    23    59    58    1
    24    72    71    2
    25    68    67    1
    26    66    67    1
    27     3     2    1
    28     2     1    1
    29     2     5    1
    30    73    71   am
    31    71    70    1
    32     5     6    1
    33    51    50   ar
    34    67    70    1
    35     6     7    1
    36    50    49    1
    37    58    61    1
    38    58    57    1
    39    57    47   am
    40    48    47    2
    41    49    46    1
    42    47    46    1
    43    96    97    2
    44    96    95    1
    45    46    45    1
    46    95    98    1
    47    95    94    1
    48   101    99    1
    49    12    11    2
    50    98    99    1
    51    84    83    1
    52    84    87    1
    53    84    85    1
    54    87    88    1
    55    45    38   am
    56    99   100    1
    57    11    10    1
    58    86    85    2
    59    44    42   ar
    60    16    17    1
    61    20    17    1
    62    17    18    1
    63    14    13    1
    64    41    42    1
    65    41    40    1
    66    88    89    1
    67    38    39    2
    68    38    37    1
    69    42    43   ar
    70    13    10    1
    71    13    15    1
    72    10     9    1
    73    89    90    1
    74    28    26    1
    75    92    91    1
    76    18    19    2
    77    37    40    1
    78    37    36    1
    79    32    31    2
    80    26    25    1
    81    90    91    2
    82    91    93    1
    83    36    31   am
    84    31    30    1
    85    35    33    1
    86    25    22    1
    87    25    27    1
    88    22    21    1
    89    22    23    1
    90    30    33    1
    91    30    29    1
    92    33    34    1
    93    23    24    2
