@<TRIPOS>MOLECULE
tmp/2pw0A00.pdb
 143 134 0 0 0
SMALL
GASTEIGER

@<TRIPOS>ATOM
      1  N         40.6440  -13.6750    2.5290 N.3    17  SER17      -0.1217
      2  CA        39.8820  -13.6070    3.7850 C.3    17  SER17       0.1889
      3  C         40.4560  -14.5960    4.8110 C.2    17  SER17       0.2288
      4  O         41.2100  -15.5150    4.4580 O.2    17  SER17      -0.2866
      5  CB        38.4060  -13.9340    3.5080 C.3    17  SER17       0.2089
      6  OG        37.8290  -13.0410    2.5560 O.3    17  SER17      -0.2183
      7  N         34.5000   -7.4920    7.4110 N.3    64  SER64      -0.1202
      8  CA        33.7740   -8.5980    6.7990 C.3    64  SER64       0.2020
      9  C         34.7020   -9.7000    6.2830 C.2    64  SER64       0.2619
     10  O         34.2580  -10.8170    6.0680 O.2    64  SER64      -0.2717
     11  CB        32.8310   -8.1160    5.6850 C.3    64  SER64       0.2103
     12  OG        33.5650   -7.4000    4.6960 O.3    64  SER64      -0.2182
     13  N         35.9890   -9.3930    6.0840 N.am   65  SER65      -0.1951
     14  CA        36.9550  -10.4050    5.6060 C.3    65  SER65       0.1924
     15  C         37.5920  -11.1940    6.7320 C.2    65  SER65       0.2314
     16  O         38.4020  -12.0870    6.4720 O.2    65  SER65      -0.2863
     17  CB        38.1070   -9.7350    4.8340 C.3    65  SER65       0.2116
     18  OG        37.6260   -8.9850    3.7330 O.3    65  SER65      -0.2180
     19  N         34.3700  -14.2950   10.4230 N.3    68  LYS68      -0.1245
     20  CA        33.9190  -15.3870    9.5300 C.3    68  LYS68       0.1561
     21  C         34.1020  -16.7540   10.1470 C.2    68  LYS68       0.2260
     22  O         35.1360  -17.0000   10.7530 O.2    68  LYS68      -0.2867
     23  CB        34.7080  -15.3390    8.2120 C.3    68  LYS68       0.0271
     24  CG        34.5090  -14.0620    7.4390 C.3    68  LYS68       0.0035
     25  CD        35.4480  -13.9640    6.2400 C.3    68  LYS68       0.0206
     26  CE        34.9680  -14.8010    5.0750 C.3    68  LYS68       0.1093
     27  NZ        33.9070  -14.0830    4.3110 N.3    68  LYS68      -0.1314
     28  N         28.8680  -21.8670    5.5780 N.3    86  PHE86      -0.1241
     29  CA        29.5800  -20.6470    5.8520 C.3    86  PHE86       0.1605
     30  C         28.7140  -19.6960    6.6890 C.2    86  PHE86       0.2264
     31  O         27.5390  -19.4680    6.3630 O.2    86  PHE86      -0.2867
     32  CB        30.0160  -19.9290    4.5590 C.3    86  PHE86       0.0534
     33  CG        30.5820  -18.6010    4.8450 C.ar   86  PHE86      -0.0203
     34  CD1       31.7460  -18.5030    5.6080 C.ar   86  PHE86      -0.0042
     35  CD2       29.9100  -17.4380    4.4770 C.ar   86  PHE86      -0.0042
     36  CE1       32.2570  -17.2590    5.9530 C.ar   86  PHE86      -0.0003
     37  CE2       30.4330  -16.1820    4.8040 C.ar   86  PHE86      -0.0003
     38  CZ        31.6000  -16.1090    5.5480 C.ar   86  PHE86      -0.0000
     39  N         28.6750  -15.8120    8.1040 N.3    88  GLN88      -0.1245
     40  CA        29.1960  -14.4560    8.1550 C.3    88  GLN88       0.1566
     41  C         28.7420  -13.8100    9.4570 C.2    88  GLN88       0.2260
     42  O         27.5520  -13.5480    9.6430 O.2    88  GLN88      -0.2867
     43  CB        28.7250  -13.6240    6.9470 C.3    88  GLN88       0.0367
     44  CG        29.3870  -12.2490    6.8380 C.3    88  GLN88       0.0905
     45  CD        30.8710  -12.3090    6.4490 C.2    88  GLN88       0.2608
     46  OE1       31.2580  -13.1170    5.6090 O.2    88  GLN88      -0.2717
     47  NE2       31.6970  -11.4520    7.0730 N.am   88  GLN88      -0.0878
     48  N         27.4360  -18.0870    0.3530 N.3   101  ASN101     -0.1225
     49  CA        28.7250  -18.7600    0.3190 C.3   101  ASN101      0.1785
     50  C         29.8070  -17.7230    0.5040 C.2   101  ASN101      0.2597
     51  O         29.5770  -16.5340    0.2020 O.2   101  ASN101     -0.2718
     52  CB        28.8930  -19.4090   -1.0580 C.3   101  ASN101      0.1169
     53  CG        30.2170  -20.1370   -1.2270 C.2   101  ASN101      0.2627
     54  OD1       30.7940  -20.6490   -0.2660 O.2   101  ASN101     -0.2716
     55  ND2       30.6860  -20.2190   -2.4790 N.am  101  ASN101     -0.0877
     56  N         30.9680  -18.1540    1.0050 N.am  102  CYS102     -0.1956
     57  CA        32.1840  -17.3250    0.8940 C.3   102  CYS102      0.1843
     58  C         33.0540  -17.9440   -0.1730 C.2   102  CYS102      0.2626
     59  O         33.5990  -19.0350    0.0150 O.2   102  CYS102     -0.2714
     60  CB        32.9930  -17.2180    2.1800 C.3   102  CYS102      0.0997
     61  SG        34.4700  -16.1370    1.8920 S.3   102  CYS102     -0.0797
     62  N         33.1680  -17.2460   -1.3040 N.am  103  GLY103     -0.1940
     63  CA        34.0030  -17.7330   -2.3900 C.3   103  GLY103      0.2014
     64  C         35.5070  -17.5940   -2.1810 C.2   103  GLY103      0.2638
     65  O         36.2810  -18.1530   -2.9510 O.2   103  GLY103     -0.2714
     66  N         35.9240  -16.8600   -1.1460 N.am  104  ASN104     -0.1972
     67  CA        37.3390  -16.8270   -0.7670 C.3   104  ASN104      0.1688
     68  C         37.6740  -17.9670    0.1710 C.2   104  ASN104      0.2292
     69  O         38.6560  -18.7030   -0.0640 O.2   104  ASN104     -0.2864
     70  CB        37.7120  -15.4700   -0.1620 C.3   104  ASN104      0.1181
     71  CG        38.2460  -14.5190   -1.2120 C.2   104  ASN104      0.2629
     72  OD1       39.3160  -14.7530   -1.7770 O.2   104  ASN104     -0.2716
     73  ND2       37.4990  -13.4580   -1.5030 N.am  104  ASN104     -0.0877
     74  N         26.4590  -15.1180   -6.0140 N.3   211  ILE211     -0.1245
     75  CA        25.6530  -14.4890   -4.9760 C.3   211  ILE211      0.1561
     76  C         24.7640  -13.5230   -5.7640 C.2   211  ILE211      0.2260
     77  O         25.1520  -13.0780   -6.8510 O.2   211  ILE211     -0.2867
     78  CB        26.5560  -13.7620   -3.9190 C.3   211  ILE211      0.0252
     79  CG1       25.7880  -13.4700   -2.6170 C.3   211  ILE211      0.0019
     80  CG2       27.2510  -12.5220   -4.5080 C.3   211  ILE211      0.0019
     81  CD1       26.7050  -13.4020   -1.3650 C.3   211  ILE211      0.0001
     82  N         23.5200   -8.7910    3.7370 N.3   267  HIS267     -0.1241
     83  CA        24.4870   -9.6840    3.0750 C.3   267  HIS267      0.1621
     84  C         24.1640   -9.8800    1.5870 C.2   267  HIS267      0.2264
     85  O         25.0690   -9.9470    0.7560 O.2   267  HIS267     -0.2867
     86  CB        24.5990  -11.0070    3.8370 C.3   267  HIS267      0.0745
     87  CG        25.7810  -11.8610    3.4560 C.ar  267  HIS267      0.0817
     88  ND1       26.9910  -11.3360    3.0330 N.ar  267  HIS267     -0.2268
     89  CD2       25.9440  -13.2050    3.4780 C.ar  267  HIS267      0.1154
     90  CE1       27.8290  -12.3260    2.7800 C.ar  267  HIS267      0.1986
     91  NE2       27.2230  -13.4700    3.0470 N.ar  267  HIS267     -0.2212
     92  N         24.4470   -8.1840   -3.2190 N.3   270  LYS270     -0.1245
     93  CA        25.6260   -7.3280   -3.2070 C.3   270  LYS270      0.1561
     94  C         25.4140   -6.2510   -4.2390 C.2   270  LYS270      0.2260
     95  O         24.6540   -6.4540   -5.1910 O.2   270  LYS270     -0.2867
     96  CB        26.8860   -8.1170   -3.5890 C.3   270  LYS270      0.0271
     97  CG        27.2410   -9.2670   -2.6460 C.3   270  LYS270      0.0035
     98  CD        27.4090   -8.7690   -1.1960 C.3   270  LYS270      0.0206
     99  CE        27.9870   -9.8450   -0.3000 C.3   270  LYS270      0.1093
    100  NZ        27.9590   -9.4160    1.1240 N.3   270  LYS270     -0.1314
    101  N         30.6310   -4.3710    0.5170 N.3   301  SER301     -0.1202
    102  CA        30.4610   -5.4930    1.4140 C.3   301  SER301      0.2020
    103  C         29.9830   -4.9260    2.7580 C.2   301  SER301      0.2618
    104  O         30.7200   -4.1880    3.4190 O.2   301  SER301     -0.2717
    105  CB        31.8040   -6.2110    1.5850 C.3   301  SER301      0.2103
    106  OG        31.7410   -7.1180    2.6530 O.3   301  SER301     -0.2182
    107  N         28.7570   -5.2820    3.1470 N.am  302  MET302     -0.1979
    108  CA        28.1560   -4.7830    4.3830 C.3   302  MET302      0.1605
    109  C         28.2300   -3.2700    4.4910 C.2   302  MET302      0.2287
    110  O         28.5270   -2.7020    5.5620 O.2   302  MET302     -0.2864
    111  CB        28.7600   -5.4900    5.6010 C.3   302  MET302      0.0413
    112  CG        27.8600   -6.6040    6.0950 C.3   302  MET302      0.0598
    113  SD        27.6160   -7.9220    4.9100 S.3   302  MET302     -0.1393
    114  CE        29.2440   -8.6850    4.9200 C.3   302  MET302      0.0692
    115  N         34.5910   -2.8280   -0.5630 N.3   306  HIS306     -0.1241
    116  CA        35.4300   -3.9930   -0.2630 C.3   306  HIS306      0.1621
    117  C         36.8890   -3.7330   -0.6400 C.2   306  HIS306      0.2264
    118  O         37.1800   -3.0700   -1.6240 O.2   306  HIS306     -0.2867
    119  CB        34.8900   -5.2390   -0.9860 C.3   306  HIS306      0.0745
    120  CG        35.4690   -6.5320   -0.5000 C.ar  306  HIS306      0.0817
    121  ND1       36.5860   -7.1130   -1.0650 N.ar  306  HIS306     -0.2268
    122  CD2       35.0830   -7.3560    0.5010 C.ar  306  HIS306      0.1154
    123  CE1       36.8600   -8.2410   -0.4340 C.ar  306  HIS306      0.1986
    124  NE2       35.9640   -8.4090    0.5240 N.ar  306  HIS306     -0.2212
    125  N         34.9590   -9.8040   -3.5090 N.3   310  MET310     -0.1230
    126  CA        34.4190  -10.9930   -2.8850 C.3   310  MET310      0.1702
    127  C         34.4600  -12.1210   -3.8970 C.2   310  MET310      0.2593
    128  O         34.2890  -11.8770   -5.0930 O.2   310  MET310     -0.2718
    129  CB        32.9900  -10.7540   -2.4130 C.3   310  MET310      0.0401
    130  CG        32.8870   -9.6590   -1.3590 C.3   310  MET310      0.0596
    131  SD        32.5940   -7.9890   -2.0050 S.3   310  MET310     -0.1393
    132  CE        30.8640   -8.1260   -2.4800 C.3   310  MET310      0.0692
    133  N         34.7330  -13.3350   -3.4360 N.am  311  GLY311     -0.1942
    134  CA        34.8490  -14.4760   -4.3460 C.3   311  GLY311      0.2014
    135  C         33.5540  -14.7610   -5.0710 C.2   311  GLY311      0.2639
    136  O         33.5560  -15.1210   -6.2570 O.2   311  GLY311     -0.2714
    137  N         32.4360  -14.6320   -4.3590 N.am  312  THR312     -0.1950
    138  CA        31.1170  -14.8180   -4.9810 C.3   312  THR312      0.1897
    139  C         30.8760  -13.7490   -6.0480 C.2   312  THR312      0.2313
    140  O         30.3280  -14.0280   -7.1320 O.2   312  THR312     -0.2863
    141  CB        29.9880  -14.7050   -3.9600 C.3   312  THR312      0.1794
    142  OG1       30.1230  -13.4670   -3.2500 O.3   312  THR312     -0.2208
    143  CG2       29.9970  -15.9030   -3.0070 C.3   312  THR312      0.0378
@<TRIPOS>BOND
     1   140   139    2
     2    77    76    2
     3   136   135    2
     4   139   138    1
     5    74    75    1
     6    76    75    1
     7    95    94    2
     8   128   127    2
     9   135   137   am
    10   135   134    1
    11   138   137    1
    12   138   141    1
    13    75    78    1
    14    80    78    1
    15   134   133    1
    16    94    93    1
    17   141   142    1
    18   141   143    1
    19    78    79    1
    20   127   133   am
    21   127   126    1
    22    96    93    1
    23    96    97    1
    24   125   126    1
    25    92    93    1
    26    65    64    2
    27   126   129    1
    28    97    98    1
    29    79    81    1
    30   132   131    1
    31    55    53   am
    32   129   130    1
    33    63    64    1
    34    63    62    1
    35    64    66   am
    36   131   130    1
    37    72    71    2
    38   118   117    2
    39    73    71   am
    40    62    58   am
    41    53    52    1
    42    53    54    2
    43    71    70    1
    44    98    99    1
    45    66    67    1
    46   121   120   ar
    47   121   123   ar
    48    52    49    1
    49   119   120    1
    50   119   116    1
    51    67    70    1
    52    67    68    1
    53   117   116    1
    54   115   116    1
    55   120   122   ar
    56   123   124   ar
    57    99   100    1
    58    58    59    2
    59    58    57    1
    60    69    68    2
    61    51    50    2
    62    49    48    1
    63    49    50    1
    64   122   124   ar
    65    50    56   am
    66   101   102    1
    67    85    84    2
    68    57    56    1
    69    57    60    1
    70   102   105    1
    71   102   103    1
    72   105   106    1
    73    84    83    1
    74    61    60    1
    75     1     2    1
    76     6     5    1
    77   103   107   am
    78   103   104    2
    79    90    88   ar
    80    90    91   ar
    81    88    87   ar
    82    91    89   ar
    83    83    82    1
    84    83    86    1
    85   107   108    1
    86    87    89   ar
    87    87    86    1
    88     5     2    1
    89    18    17    1
    90     2     3    1
    91    27    26    1
    92   108   109    1
    93   108   111    1
    94     4     3    2
    95    35    37   ar
    96    35    33   ar
    97   109   110    2
    98    32    33    1
    99    32    29    1
   100    12    11    1
   101    37    38   ar
   102    17    14    1
   103    33    34   ar
   104   113   114    1
   105   113   112    1
   106    26    25    1
   107    38    36   ar
   108    28    29    1
   109   111   112    1
   110    14    13    1
   111    14    15    1
   112    34    36   ar
   113    46    45    2
   114    11     8    1
   115    29    30    1
   116    10     9    2
   117    13     9   am
   118    25    24    1
   119     9     8    1
   120    31    30    2
   121    45    44    1
   122    45    47   am
   123    16    15    2
   124     8     7    1
   125    44    43    1
   126    43    40    1
   127    24    23    1
   128    39    40    1
   129    40    41    1
   130    23    20    1
   131    41    42    2
   132    20    21    1
   133    20    19    1
   134    21    22    2
