@<TRIPOS>MOLECULE
tmp/2pw0B00.pdb
 127 118 0 0 0
SMALL
GASTEIGER

@<TRIPOS>ATOM
      1  N         -7.8610   -5.2840   24.2760 N.3    18  SER18      -0.1217
      2  CA        -7.0270   -5.6960   23.1310 C.3    18  SER18       0.1889
      3  C         -6.9980   -7.2220   22.9700 C.2    18  SER18       0.2288
      4  O         -7.3430   -7.9690   23.8970 O.2    18  SER18      -0.2866
      5  CB        -5.6070   -5.1950   23.3520 C.3    18  SER18       0.2089
      6  OG        -5.5760   -3.7770   23.3820 O.3    18  SER18      -0.2183
      7  N         -4.2740   -1.3300   15.7980 N.3    65  SER65      -0.1202
      8  CA        -3.2620   -1.4140   16.8270 C.3    65  SER65       0.2020
      9  C         -3.6570   -2.3190   17.9920 C.2    65  SER65       0.2619
     10  O         -2.7920   -2.9270   18.6080 O.2    65  SER65      -0.2717
     11  CB        -2.8510   -0.0280   17.3280 C.3    65  SER65       0.2103
     12  OG        -3.9400    0.6750   17.9270 O.3    65  SER65      -0.2182
     13  N         -4.9630   -2.4190   18.2670 N.am   66  SER66      -0.1951
     14  CA        -5.4770   -3.2170   19.3780 C.3    66  SER66       0.1924
     15  C         -5.5760   -4.6970   19.0640 C.2    66  SER66       0.2314
     16  O         -5.9220   -5.4860   19.9300 O.2    66  SER66      -0.2863
     17  CB        -6.8680   -2.7080   19.7850 C.3    66  SER66       0.2116
     18  OG        -6.8300   -1.3010   19.9660 O.3    66  SER66      -0.2180
     19  N         -0.8550   -7.7750   17.5090 N.3    69  LYS69      -0.1245
     20  CA        -0.0650   -7.8520   18.7420 C.3    69  LYS69       0.1561
     21  C          0.4220   -9.2450   19.0360 C.2    69  LYS69       0.2260
     22  O         -0.3280  -10.2020   18.8400 O.2    69  LYS69      -0.2867
     23  CB        -0.9490   -7.4350   19.9230 C.3    69  LYS69       0.0271
     24  CG        -1.3300   -5.9830   19.9400 C.3    69  LYS69       0.0035
     25  CD        -2.2460   -5.7520   21.1290 C.3    69  LYS69       0.0206
     26  CE        -2.5320   -4.3190   21.3500 C.3    69  LYS69       0.1093
     27  NZ        -1.4040   -3.5730   21.9530 N.3    69  LYS69      -0.1314
     28  N          6.6990   -7.9430   24.9070 N.3    87  PHE87      -0.1241
     29  CA         5.5950   -7.5260   24.0730 C.3    87  PHE87       0.1605
     30  C          6.0720   -6.9670   22.7380 C.2    87  PHE87       0.2264
     31  O          6.9480   -6.1060   22.7070 O.2    87  PHE87      -0.2867
     32  CB         4.7460   -6.4560   24.7630 C.3    87  PHE87       0.0534
     33  CG         3.7080   -5.8840   23.8560 C.ar   87  PHE87      -0.0203
     34  CD1        2.7050   -6.7130   23.3290 C.ar   87  PHE87      -0.0042
     35  CD2        3.7680   -4.5530   23.4590 C.ar   87  PHE87      -0.0042
     36  CE1        1.7620   -6.1960   22.4360 C.ar   87  PHE87      -0.0003
     37  CE2        2.8340   -4.0230   22.5770 C.ar   87  PHE87      -0.0003
     38  CZ         1.8300   -4.8480   22.0570 C.ar   87  PHE87      -0.0000
     39  N          4.6400   -5.0860   19.3290 N.3    89  GLN89      -0.1245
     40  CA         3.5860   -4.3890   18.5990 C.3    89  GLN89       0.1566
     41  C          3.8960   -4.5230   17.1190 C.2    89  GLN89       0.2260
     42  O          4.8920   -3.9890   16.6370 O.2    89  GLN89      -0.2867
     43  CB         3.4970   -2.9090   19.0070 C.3    89  GLN89       0.0367
     44  CG         2.3630   -2.1390   18.3240 C.3    89  GLN89       0.0905
     45  CD         0.9690   -2.5370   18.8330 C.2    89  GLN89       0.2608
     46  OE1        0.7670   -2.7350   20.0420 O.2    89  GLN89      -0.2717
     47  NE2        0.0070   -2.6590   17.9070 N.am   89  GLN89      -0.0878
     48  N          5.5780   -1.5710   26.6360 N.3   102  ASN102     -0.1225
     49  CA         4.6650   -2.5480   27.2320 C.3   102  ASN102      0.1785
     50  C          3.2760   -2.4360   26.6040 C.2   102  ASN102      0.2597
     51  O          2.9260   -1.4000   26.0360 O.2   102  ASN102     -0.2718
     52  CB         4.5730   -2.2540   28.7420 C.3   102  ASN102      0.1169
     53  CG         3.7250   -3.2490   29.4990 C.2   102  ASN102      0.2627
     54  OD1        3.5780   -4.4080   29.1090 O.2   102  ASN102     -0.2716
     55  ND2        3.1870   -2.7990   30.6380 N.am  102  ASN102     -0.0877
     56  N          2.4890   -3.5050   26.7050 N.am  103  CYS103     -0.1956
     57  CA         1.0470   -3.3920   26.5030 C.3   103  CYS103      0.1843
     58  C          0.3670   -3.5380   27.8580 C.2   103  CYS103      0.2626
     59  O          0.4110   -4.6030   28.4650 O.2   103  CYS103     -0.2714
     60  CB         0.4980   -4.4240   25.5270 C.3   103  CYS103      0.0997
     61  SG        -1.2690   -4.1080   25.2720 S.3   103  CYS103     -0.0797
     62  N         -0.2560   -2.4440   28.3160 N.am  104  GLY104     -0.1940
     63  CA        -0.9650   -2.4170   29.5870 C.3   104  GLY104      0.2014
     64  C         -2.2700   -3.1960   29.5690 C.2   104  GLY104      0.2638
     65  O         -2.7190   -3.6650   30.6030 O.2   104  GLY104     -0.2714
     66  N         -2.8730   -3.3520   28.3960 N.am  105  ASN105     -0.1972
     67  CA        -4.1020   -4.1400   28.2980 C.3   105  ASN105      0.1688
     68  C         -3.8330   -5.6430   28.2940 C.2   105  ASN105      0.2292
     69  O         -4.4880   -6.4120   29.0060 O.2   105  ASN105     -0.2864
     70  CB        -4.9110   -3.7270   27.0670 C.3   105  ASN105      0.1181
     71  CG        -5.9500   -2.6650   27.3920 C.2   105  ASN105      0.2629
     72  OD1       -6.8830   -2.9080   28.1730 O.2   105  ASN105     -0.2716
     73  ND2       -5.7830   -1.4860   26.8140 N.am  105  ASN105     -0.0877
     74  N          4.2750    4.4950   29.9300 N.3   204  ILE204     -0.1245
     75  CA         4.8490    4.6800   28.5920 C.3   204  ILE204      0.1561
     76  C          5.1410    6.1890   28.4730 C.2   204  ILE204      0.2260
     77  O          4.3980    6.9790   29.0520 O.2   204  ILE204     -0.2867
     78  CB         3.8430    4.2110   27.5040 C.3   204  ILE204      0.0252
     79  CG1        4.5130    4.0260   26.1440 C.3   204  ILE204      0.0019
     80  CG2        2.6300    5.1850   27.4020 C.3   204  ILE204      0.0019
     81  CD1        3.8110    2.9750   25.2600 C.3   204  ILE204      0.0001
     82  N          3.5900    8.3130   23.2190 N.3   229  LYS229     -0.1245
     83  CA         2.1870    8.5180   22.8730 C.3   229  LYS229      0.1561
     84  C          1.8210    9.9940   22.9690 C.2   229  LYS229      0.2260
     85  O          2.4200   10.7450   23.7540 O.2   229  LYS229     -0.2867
     86  CB         1.2870    7.7120   23.8250 C.3   229  LYS229      0.0271
     87  CG         1.5040    6.1940   23.8530 C.3   229  LYS229      0.0035
     88  CD         1.2740    5.5940   22.4610 C.3   229  LYS229      0.0206
     89  CE         1.5510    4.1230   22.4700 C.3   229  LYS229      0.1093
     90  NZ         1.2690    3.5270   21.1220 N.3   229  LYS229     -0.1314
     91  N         -3.9310    9.1060   20.8990 N.3   259  LEU259     -0.1245
     92  CA        -3.6180    8.5050   19.6070 C.3   259  LEU259      0.1561
     93  C         -2.7210    7.2950   19.7810 C.2   259  LEU259      0.2260
     94  O         -1.8680    7.2450   20.6830 O.2   259  LEU259     -0.2867
     95  CB        -2.9840    9.5400   18.6570 C.3   259  LEU259      0.0270
     96  CG        -4.0040   10.5250   18.0570 C.3   259  LEU259      0.0019
     97  CD1       -4.2900   11.6860   18.9890 C.3   259  LEU259      0.0001
     98  CD2       -3.5510   11.0110   16.6710 C.3   259  LEU259      0.0001
     99  N         -7.3160    6.3370   19.4010 N.3   262  HIS262     -0.1241
    100  CA        -7.5150    5.0180   20.0060 C.3   262  HIS262      0.1621
    101  C         -8.9930    4.8550   20.3590 C.2   262  HIS262      0.2264
    102  O         -9.6560    5.8160   20.7840 O.2   262  HIS262     -0.2867
    103  CB        -6.6450    4.8410   21.2710 C.3   262  HIS262      0.0745
    104  CG        -6.5520    3.4240   21.7630 C.ar  262  HIS262      0.0817
    105  ND1       -7.4390    2.8970   22.6790 N.ar  262  HIS262     -0.2268
    106  CD2       -5.6720    2.4290   21.4880 C.ar  262  HIS262      0.1154
    107  CE1       -7.1300    1.6390   22.9250 C.ar  262  HIS262      0.1986
    108  NE2       -6.0560    1.3320   22.2170 N.ar  262  HIS262     -0.2212
    109  N         -5.2560    3.1300   25.8910 N.3   266  MET266     -0.1230
    110  CA        -4.1220    2.2340   26.1020 C.3   266  MET266      0.1702
    111  C         -3.8930    2.0610   27.6070 C.2   266  MET266      0.2593
    112  O         -4.0470    3.0130   28.3880 O.2   266  MET266     -0.2718
    113  CB        -2.8520    2.7660   25.4320 C.3   266  MET266      0.0401
    114  CG        -2.9770    2.9960   23.9220 C.3   266  MET266      0.0596
    115  SD        -3.6290    4.6040   23.4370 S.3   266  MET266     -0.1393
    116  CE        -2.1240    5.5690   23.5400 C.3   266  MET266      0.0692
    117  N         -3.5340    0.8470   28.0100 N.am  267  GLY267     -0.1942
    118  CA        -3.3190    0.5300   29.3990 C.3   267  GLY267      0.2014
    119  C         -2.1350    1.2780   29.9740 C.2   267  GLY267      0.2639
    120  O         -2.1780    1.7510   31.0990 O.2   267  GLY267     -0.2714
    121  N         -1.0660    1.3560   29.1930 N.am  268  THR268     -0.1950
    122  CA         0.0950    2.1790   29.5730 C.3   268  THR268      0.1897
    123  C         -0.2590    3.6670   29.7170 C.2   268  THR268      0.2313
    124  O          0.2140    4.3430   30.6430 O.2   268  THR268     -0.2863
    125  CB         1.2180    2.0600   28.5420 C.3   268  THR268      0.1794
    126  OG1        0.7160    2.4140   27.2410 O.3   268  THR268     -0.2208
    127  CG2        1.8300    0.6490   28.5660 C.3   268  THR268      0.0378
@<TRIPOS>BOND
     1     7     8    1
     2    42    41    2
     3    98    96    1
     4     8    11    1
     5     8     9    1
     6    41    40    1
     7    11    12    1
     8    19    20    1
     9    47    45   am
    10     9    13   am
    11     9    10    2
    12    96    95    1
    13    96    97    1
    14    13    14    1
    15    44    45    1
    16    44    43    1
    17    40    43    1
    18    40    39    1
    19    95    92    1
    20    20    21    1
    21    20    23    1
    22    45    46    2
    23    22    21    2
    24    15    14    1
    25    15    16    2
    26    14    17    1
    27    99   100    1
    28    92    93    1
    29    92    91    1
    30    93    94    2
    31    17    18    1
    32    23    24    1
    33    24    25    1
    34   100   101    1
    35   100   103    1
    36   101   102    2
    37    90    89    1
    38    25    26    1
    39   103   104    1
    40    26    27    1
    41   106   104   ar
    42   106   108   ar
    43   104   105   ar
    44    38    36   ar
    45    38    37   ar
    46   108   107   ar
    47    36    34   ar
    48    88    89    1
    49    88    87    1
    50    37    35   ar
    51   105   107   ar
    52    31    30    2
    53    30    29    1
    54    83    84    1
    55    83    82    1
    56    83    86    1
    57    84    85    2
    58     3     2    1
    59     3     4    2
    60     2     5    1
    61     2     1    1
    62    34    33   ar
    63     5     6    1
    64   115   116    1
    65   115   114    1
    66    35    33   ar
    67    86    87    1
    68    33    32    1
    69   114   113    1
    70    29    32    1
    71    29    28    1
    72    81    79    1
    73    61    60    1
    74   113   110    1
    75    60    57    1
    76   109   110    1
    77    51    50    2
    78   110   111    1
    79    79    78    1
    80    57    56    1
    81    57    58    1
    82    50    56   am
    83    50    49    1
    84    48    49    1
    85    73    71   am
    86    70    71    1
    87    70    67    1
    88    49    52    1
    89   126   125    1
    90    71    72    2
    91    80    78    1
    92    78    75    1
    93   111   117   am
    94   111   112    2
    95    58    62   am
    96    58    59    2
    97   117   118    1
    98    68    67    1
    99    68    69    2
   100    67    66    1
   101    62    63    1
   102    66    64   am
   103    76    75    1
   104    76    77    2
   105   125   127    1
   106   125   122    1
   107    75    74    1
   108    52    53    1
   109    54    53    2
   110   121   122    1
   111   121   119   am
   112   118   119    1
   113    53    55   am
   114    64    63    1
   115    64    65    2
   116   122   123    1
   117   123   124    2
   118   119   120    2
