@<TRIPOS>MOLECULE
tmp/2pw1B00.pdb
 116 110 0 0 0
SMALL
GASTEIGER

@<TRIPOS>ATOM
      1  N         -1.4860   48.2040   93.6340 N.3    32  PHE32      -0.1227
      2  CA        -0.9990   49.4520   93.0830 C.3    32  PHE32       0.1736
      3  C         -0.1410   49.4320   91.8340 C.2    32  PHE32       0.2596
      4  O          0.9280   48.8330   91.8130 O.2    32  PHE32      -0.2718
      5  CB        -0.2430   50.2370   94.1300 C.3    32  PHE32       0.0547
      6  CG         0.2420   51.5430   93.6240 C.ar   32  PHE32      -0.0202
      7  CD1       -0.6520   52.5840   93.4120 C.ar   32  PHE32      -0.0042
      8  CD2        1.5760   51.7160   93.2750 C.ar   32  PHE32      -0.0042
      9  CE1       -0.2300   53.7870   92.8480 C.ar   32  PHE32      -0.0003
     10  CE2        2.0140   52.9100   92.7120 C.ar   32  PHE32      -0.0003
     11  CZ         1.1070   53.9520   92.4960 C.ar   32  PHE32      -0.0000
     12  N         -0.6200   50.1350   90.8120 N.am   33  GLY33      -0.1957
     13  CA         0.0930   50.2670   89.5520 C.3    33  GLY33       0.1869
     14  C          0.1440   49.1000   88.5930 C.2    33  GLY33       0.2309
     15  O          0.6920   49.2330   87.5070 O.2    33  GLY33      -0.2863
     16  N         -4.8650   48.8310   83.6330 N.3    54  TYR54      -0.1241
     17  CA        -4.2770   48.9440   84.9610 C.3    54  TYR54       0.1605
     18  C         -5.3100   48.8180   86.0770 C.2    54  TYR54       0.2264
     19  O         -6.5210   48.9020   85.8550 O.2    54  TYR54      -0.2867
     20  CB        -3.5730   50.2860   85.0910 C.3    54  TYR54       0.0534
     21  CG        -2.4820   50.4820   84.0730 C.ar   54  TYR54      -0.0201
     22  CD1       -1.2050   49.9490   84.2740 C.ar   54  TYR54      -0.0009
     23  CD2       -2.7260   51.1910   82.8970 C.ar   54  TYR54      -0.0009
     24  CE1       -0.1980   50.1220   83.3310 C.ar   54  TYR54       0.0417
     25  CE2       -1.7280   51.3670   81.9430 C.ar   54  TYR54       0.0417
     26  CZ        -0.4690   50.8320   82.1650 C.ar   54  TYR54       0.1957
     27  OH         0.5100   51.0120   81.2170 O.3    54  TYR54      -0.2866
     28  N         -6.2060   50.8320   88.2030 N.3    56  ASP56      -0.1239
     29  CA        -7.0490   51.9990   88.4120 C.3    56  ASP56       0.1674
     30  C         -8.0450   52.1630   87.2590 C.2    56  ASP56       0.2266
     31  O         -8.7230   53.1840   87.1450 O.2    56  ASP56      -0.2867
     32  CB        -6.1810   53.2550   88.5890 C.3    56  ASP56       0.1410
     33  CG        -5.2950   53.5400   87.3890 C.2    56  ASP56       0.3668
     34  OD1       -5.3370   52.7730   86.4110 O.co2  56  ASP56      -0.2456
     35  OD2       -4.5540   54.5450   87.4300 O.co2  56  ASP56      -0.2456
     36  N         -7.3810   52.3980   84.1060 N.3    58  ASP58      -0.1239
     37  CA        -6.8240   53.2400   83.0610 C.3    58  ASP58       0.1674
     38  C         -6.6200   52.2910   81.8860 C.2    58  ASP58       0.2266
     39  O         -6.1620   51.1630   82.0780 O.2    58  ASP58      -0.2867
     40  CB        -5.4910   53.8150   83.5450 C.3    58  ASP58       0.1410
     41  CG        -4.7950   54.6740   82.4990 C.2    58  ASP58       0.3668
     42  OD1       -5.4960   55.3090   81.6800 O.co2  58  ASP58      -0.2456
     43  OD2       -3.5420   54.7290   82.5130 O.co2  58  ASP58      -0.2456
     44  N         -5.3800   51.6640   77.6140 N.3    60  ARG60      -0.1245
     45  CA        -4.6760   52.1190   76.4370 C.3    60  ARG60       0.1563
     46  C         -4.7740   51.0670   75.3460 C.2    60  ARG60       0.2260
     47  O         -4.7330   49.8670   75.6190 O.2    60  ARG60      -0.2867
     48  CB        -3.2300   52.4290   76.7950 C.3    60  ARG60       0.0307
     49  CG        -3.1010   53.6750   77.6650 C.3    60  ARG60       0.0489
     50  CD        -3.6540   54.8870   76.9230 C.3    60  ARG60       0.2205
     51  NE        -3.2900   56.1460   77.5610 N.pl3  60  ARG60      -0.0865
     52  CZ        -3.7960   56.5860   78.7050 C.cat  60  ARG60       0.5346
     53  NH1       -4.7010   55.8640   79.3460 N.pl3  60  ARG60       0.1354
     54  NH2       -3.3980   57.7480   79.2070 N.pl3  60  ARG60       0.1354
     55  N          2.3100   43.3540   84.0920 N.3   100  ARG100     -0.1231
     56  CA         3.2000   44.4970   84.1510 C.3   100  ARG100      0.1694
     57  C          3.2730   44.9250   85.6000 C.2   100  ARG100      0.2591
     58  O          2.2510   45.1840   86.2260 O.2   100  ARG100     -0.2718
     59  CB         2.6910   45.6630   83.3320 C.3   100  ARG100      0.0321
     60  CG         3.7970   46.6530   83.0950 C.3   100  ARG100      0.0489
     61  CD         3.3030   47.9850   82.6530 C.3   100  ARG100      0.2205
     62  NE         4.4400   48.8360   82.3600 N.pl3 100  ARG100     -0.0865
     63  CZ         4.3530   50.0670   81.8620 C.cat 100  ARG100      0.5346
     64  NH1        3.1660   50.6030   81.5980 N.pl3 100  ARG100      0.1354
     65  NH2        5.4580   50.7680   81.6160 N.pl3 100  ARG100      0.1354
     66  N          4.4810   44.9830   86.1370 N.am  101  ARG101     -0.1980
     67  CA         4.6390   45.3740   87.5150 C.3   101  ARG101      0.1597
     68  C          4.3290   46.8360   87.7030 C.2   101  ARG101      0.2287
     69  O          4.5050   47.6460   86.7920 O.2   101  ARG101     -0.2864
     70  CB         6.0630   45.1090   87.9900 C.3   101  ARG101      0.0334
     71  CG         6.3320   43.6650   88.3680 C.3   101  ARG101      0.0492
     72  CD         7.7670   43.4750   88.8120 C.3   101  ARG101      0.2205
     73  NE         8.6980   43.7820   87.7320 N.pl3 101  ARG101     -0.0865
     74  CZ         9.6250   42.9390   87.2750 C.cat 101  ARG101      0.5346
     75  NH1        9.7500   41.7250   87.8090 N.pl3 101  ARG101      0.1354
     76  NH2       10.4240   43.3050   86.2750 N.pl3 101  ARG101      0.1354
     77  N          4.9180   50.2660   90.3070 N.3   103  PRO103     -0.2116
     78  CA         6.1090   50.7910   90.9700 C.3   103  PRO103      0.1372
     79  C          6.3390   50.1710   92.3350 C.2   103  PRO103      0.2244
     80  O          5.4040   49.7290   93.0110 O.2   103  PRO103     -0.2868
     81  CB         5.8110   52.2730   91.0870 C.3   103  PRO103      0.0268
     82  CG         4.9410   52.5320   89.9300 C.3   103  PRO103      0.0207
     83  CD         4.0010   51.3600   89.9670 C.3   103  PRO103      0.0892
     84  N          6.1030   55.2080   96.6310 N.3   110  PRO110     -0.2116
     85  CA         6.6470   54.9390   95.3050 C.3   110  PRO110      0.1372
     86  C          8.1190   55.3310   95.3420 C.2   110  PRO110      0.2244
     87  O          8.4390   56.5190   95.3940 O.2   110  PRO110     -0.2868
     88  CB         5.8460   55.8870   94.4270 C.3   110  PRO110      0.0268
     89  CG         4.4950   55.8440   95.0530 C.3   110  PRO110      0.0207
     90  CD         4.7360   55.7580   96.5340 C.3   110  PRO110      0.0892
     91  N         10.5070   53.2940   89.8070 N.3   113  ARG113     -0.1245
     92  CA         9.6090   53.0690   88.6890 C.3   113  ARG113      0.1563
     93  C         10.2680   52.1960   87.6230 C.2   113  ARG113      0.2260
     94  O          9.6680   51.9020   86.5950 O.2   113  ARG113     -0.2867
     95  CB         9.1700   54.4040   88.0960 C.3   113  ARG113      0.0307
     96  CG        10.3140   55.2780   87.6590 C.3   113  ARG113      0.0489
     97  CD         9.8130   56.5920   87.1140 C.3   113  ARG113      0.2205
     98  NE        10.9120   57.4100   86.6200 N.pl3 113  ARG113     -0.0865
     99  CZ        10.7850   58.3000   85.6440 C.cat 113  ARG113      0.5346
    100  NH1        9.6030   58.4730   85.0600 N.pl3 113  ARG113      0.1354
    101  NH2       11.8340   59.0170   85.2550 N.pl3 113  ARG113      0.1354
    102  N          8.5180   48.7630   86.0600 N.3   116  VAL116     -0.1231
    103  CA         7.3480   48.8140   85.1850 C.3   116  VAL116      0.1692
    104  C          7.8140   48.8130   83.7350 C.2   116  VAL116      0.2592
    105  O          7.0040   48.8390   82.8060 O.2   116  VAL116     -0.2718
    106  CB         6.5300   50.0930   85.3900 C.3   116  VAL116      0.0266
    107  CG1        6.2920   50.3260   86.8540 C.3   116  VAL116      0.0020
    108  CG2        7.2450   51.2740   84.7640 C.3   116  VAL116      0.0020
    109  N          9.1250   48.7970   83.5390 N.am  117  ASN117     -0.1974
    110  CA         9.6420   48.8450   82.1960 C.3   117  ASN117      0.1688
    111  C          9.8850   47.4880   81.5900 C.2   117  ASN117      0.2292
    112  O         10.9970   47.1610   81.1570 O.2   117  ASN117     -0.2864
    113  CB        10.8940   49.7110   82.1590 C.3   117  ASN117      0.1181
    114  CG        10.5640   51.1930   82.2410 C.2   117  ASN117      0.2629
    115  OD1        9.5150   51.6330   81.7620 O.2   117  ASN117     -0.2716
    116  ND2       11.4640   51.9730   82.8250 N.am  117  ASN117     -0.0877
@<TRIPOS>BOND
     1    46    47    2
     2    46    45    1
     3    45    48    1
     4    45    44    1
     5    48    49    1
     6    50    51    1
     7    50    49    1
     8    51    52    2
     9    52    54    1
    10    52    53    1
    11   112   111    2
    12    27    26    1
    13   111   110    1
    14    64    63    1
    15    65    63    1
    16    42    41   ar
    17   115   114    2
    18    63    62    2
    19    38    39    2
    20    38    37    1
    21    25    26   ar
    22    25    23   ar
    23   113   110    1
    24   113   114    1
    25    26    24   ar
    26   110   109    1
    27   114   116   am
    28    62    61    1
    29    41    43   ar
    30    41    40    1
    31    61    60    1
    32   105   104    2
    33    23    21   ar
    34    37    40    1
    35    37    36    1
    36    60    59    1
    37    24    22   ar
    38    59    56    1
    39   109   104   am
    40    16    17    1
    41   104   103    1
    42    21    22   ar
    43    21    20    1
    44    55    56    1
    45    56    57    1
    46   108   106    1
    47    17    20    1
    48    17    18    1
    49   100    99    1
    50   103   106    1
    51   103   102    1
    52   101    99    1
    53   106   107    1
    54    57    66   am
    55    57    58    2
    56    99    98    2
    57    19    18    2
    58    66    67    1
    59    76    74    1
    60    34    33   ar
    61    94    93    2
    62    98    97    1
    63    69    68    2
    64    97    96    1
    65    31    30    2
    66    30    29    1
    67    74    73    2
    68    74    75    1
    69    33    35   ar
    70    33    32    1
    71    15    14    2
    72    67    68    1
    73    67    70    1
    74    93    92    1
    75    96    95    1
    76    73    72    1
    77    70    71    1
    78    95    92    1
    79    28    29    1
    80    71    72    1
    81    29    32    1
    82    14    13    1
    83    92    91    1
    84    13    12    1
    85    82    83    1
    86    82    81    1
    87    83    77    1
    88    77    78    1
    89    12     3   am
    90    78    81    1
    91    78    79    1
    92     4     3    2
    93     3     2    1
    94    79    80    2
    95    11    10   ar
    96    11     9   ar
    97    10     8   ar
    98     9     7   ar
    99     2     1    1
   100     2     5    1
   101     8     6   ar
   102     7     6   ar
   103     6     5    1
   104    88    89    1
   105    88    85    1
   106    89    90    1
   107    85    86    1
   108    85    84    1
   109    86    87    2
   110    90    84    1
