@<TRIPOS>MOLECULE
tmp/2pw3A00.pdb
 183 176 0 0 0
SMALL
GASTEIGER

@<TRIPOS>ATOM
      1  N          2.9030    6.8020   59.4150 N.3    74  TYR74      -0.1227
      2  CA         4.1200    6.0300   59.2080 C.3    74  TYR74       0.1736
      3  C          5.0520    6.5790   58.1330 C.2    74  TYR74       0.2595
      4  O          6.2210    6.8560   58.4110 O.2    74  TYR74      -0.2718
      5  CB         3.7610    4.5870   58.8700 C.3    74  TYR74       0.0548
      6  CG         4.9700    3.6980   58.7040 C.ar   74  TYR74      -0.0200
      7  CD1        5.5100    3.0160   59.7910 C.ar   74  TYR74      -0.0009
      8  CD2        5.5960    3.5740   57.4660 C.ar   74  TYR74      -0.0009
      9  CE1        6.6560    2.2270   59.6500 C.ar   74  TYR74       0.0417
     10  CE2        6.7390    2.7960   57.3130 C.ar   74  TYR74       0.0417
     11  CZ         7.2630    2.1280   58.4060 C.ar   74  TYR74       0.1957
     12  OH         8.4060    1.3670   58.2510 O.3    74  TYR74      -0.2866
     13  N          4.5400    6.7220   56.9110 N.am   75  HIS75      -0.1975
     14  CA         5.3510    7.2170   55.7970 C.3    75  HIS75       0.1656
     15  C          5.5830    8.7250   55.8420 C.2    75  HIS75       0.2291
     16  O          5.1590    9.4600   54.9480 O.2    75  HIS75      -0.2864
     17  CB         4.7100    6.8280   54.4570 C.3    75  HIS75       0.0771
     18  CG         4.6840    5.3530   54.2030 C.ar   75  HIS75       0.0820
     19  ND1        3.5550    4.5830   54.3850 N.ar   75  HIS75      -0.2267
     20  CD2        5.6560    4.5020   53.7920 C.ar   75  HIS75       0.1154
     21  CE1        3.8310    3.3230   54.0970 C.ar   75  HIS75       0.1986
     22  NE2        5.1000    3.2470   53.7340 N.ar   75  HIS75      -0.2212
     23  N         10.5580    8.1920   50.2310 N.3   116  ASN116     -0.1240
     24  CA         9.1140    8.1780   50.4790 C.3   116  ASN116      0.1653
     25  C          8.5280    9.5940   50.5130 C.2   116  ASN116      0.2266
     26  O          7.4310    9.7920   51.0220 O.2   116  ASN116     -0.2867
     27  CB         8.8010    7.4700   51.8120 C.3   116  ASN116      0.1155
     28  CG         8.6570    5.9500   51.6740 C.2   116  ASN116      0.2627
     29  OD1        8.7350    5.1830   52.6700 O.2   116  ASN116     -0.2716
     30  ND2        8.4340    5.4560   50.4620 N.am  116  ASN116     -0.0877
     31  N          4.5350   11.0180   50.3160 N.3   119  HIS119     -0.1241
     32  CA         3.7440    9.7950   50.3740 C.3   119  HIS119      0.1621
     33  C          2.3710   10.1910   50.9170 C.2   119  HIS119      0.2264
     34  O          2.2730   10.8400   51.9610 O.2   119  HIS119     -0.2867
     35  CB         4.4130    8.7810   51.3000 C.3   119  HIS119      0.0745
     36  CG         3.8490    7.4010   51.1840 C.ar  119  HIS119      0.0817
     37  ND1        2.5560    7.0910   51.5470 N.ar  119  HIS119     -0.2268
     38  CD2        4.4030    6.2460   50.7400 C.ar  119  HIS119      0.1154
     39  CE1        2.3370    5.8060   51.3330 C.ar  119  HIS119      0.1986
     40  NE2        3.4430    5.2700   50.8430 N.ar  119  HIS119     -0.2212
     41  N          6.9200    5.0890   43.8550 N.3   145  GLU145     -0.1245
     42  CA         8.3740    5.1700   43.7730 C.3   145  GLU145      0.1567
     43  C          8.8410    6.1880   42.7290 C.2   145  GLU145      0.2260
     44  O          9.7880    6.9510   42.9660 O.2   145  GLU145     -0.2867
     45  CB         8.9590    3.7850   43.4820 C.3   145  GLU145      0.0388
     46  CG         8.7360    2.7560   44.6020 C.3   145  GLU145      0.1160
     47  CD         7.3210    2.1670   44.6450 C.2   145  GLU145      0.3649
     48  OE1        6.5090    2.4400   43.7330 O.co2 145  GLU145     -0.2457
     49  OE2        7.0280    1.4120   45.6010 O.co2 145  GLU145     -0.2457
     50  N         12.6990   -0.1930   45.8600 N.3   186  THR186     -0.1218
     51  CA        12.0100   -0.2600   47.1480 C.3   186  THR186      0.1862
     52  C         10.5580   -0.7000   46.9600 C.2   186  THR186      0.2287
     53  O          9.8480   -0.9580   47.9270 O.2   186  THR186     -0.2866
     54  CB        12.0450    1.0960   47.9110 C.3   186  THR186      0.1770
     55  OG1       11.3790    2.1120   47.1480 O.3   186  THR186     -0.2211
     56  CG2       13.4900    1.5150   48.1840 C.3   186  THR186      0.0375
     57  N          7.6900   -2.8980   46.7760 N.3   188  MET188     -0.1245
     58  CA         7.5110   -4.2480   47.3020 C.3   188  MET188      0.1570
     59  C          7.1630   -5.3050   46.2630 C.2   188  MET188      0.2261
     60  O          7.3550   -6.4960   46.5120 O.2   188  MET188     -0.2867
     61  CB         6.4550   -4.2710   48.4120 C.3   188  MET188      0.0387
     62  CG         6.9340   -3.7320   49.7490 C.3   188  MET188      0.0595
     63  SD         8.3980   -4.6030   50.3970 S.3   188  MET188     -0.1393
     64  CE         7.7170   -6.1940   50.8290 C.3   188  MET188      0.0692
     65  N         14.6640    0.0010   54.8780 N.3   233  ASP233     -0.1225
     66  CA        13.2370    0.3140   54.7850 C.3   233  ASP233      0.1805
     67  C         12.4300   -0.7160   55.5830 C.2   233  ASP233      0.2597
     68  O         11.3990   -0.3860   56.1710 O.2   233  ASP233     -0.2718
     69  CB        12.8280    0.3120   53.3100 C.3   233  ASP233      0.1424
     70  CG        11.4880    0.9910   53.0480 C.2   233  ASP233      0.3668
     71  OD1       11.1410    1.9990   53.7150 O.co2 233  ASP233     -0.2456
     72  OD2       10.7950    0.5210   52.1260 O.co2 233  ASP233     -0.2456
     73  N         12.9210   -1.9540   55.6210 N.am  234  LEU234     -0.1979
     74  CA        12.2620   -3.0450   56.3440 C.3   234  LEU234      0.1596
     75  C         12.9980   -3.3750   57.6420 C.2   234  LEU234      0.2287
     76  O         13.0200   -4.5300   58.0780 O.2   234  LEU234     -0.2864
     77  CB        12.2030   -4.2960   55.4550 C.3   234  LEU234      0.0297
     78  CG        11.3290   -4.1770   54.2010 C.3   234  LEU234      0.0022
     79  CD1       11.5250   -5.3930   53.3040 C.3   234  LEU234      0.0001
     80  CD2        9.8680   -4.0330   54.6130 C.3   234  LEU234      0.0001
     81  N         12.3480   -1.9700   60.7890 N.3   236  ASN236     -0.1226
     82  CA        11.6090   -1.7740   62.0420 C.3   236  ASN236      0.1770
     83  C         11.6350   -2.9780   62.9920 C.2   236  ASN236      0.2439
     84  O         11.9170   -2.8280   64.1800 O.2   236  ASN236     -0.2733
     85  CB        10.1280   -1.4340   61.7860 C.3   236  ASN236      0.1168
     86  CG         9.9220   -0.1080   61.0900 C.2   236  ASN236      0.2627
     87  OD1        8.8010    0.2040   60.6850 O.2   236  ASN236     -0.2716
     88  ND2       10.9820    0.6830   60.9550 N.am  236  ASN236     -0.0877
     89  N         11.3220   -4.1860   62.4860 N.am  237  PRO237     -0.2729
     90  CA        11.3160   -5.3730   63.3480 C.3   237  PRO237      0.1401
     91  C         12.6740   -5.8000   63.9030 C.2   237  PRO237      0.2269
     92  O         12.7390   -6.6660   64.7830 O.2   237  PRO237     -0.2865
     93  CB        10.7010   -6.4550   62.4530 C.3   237  PRO237      0.0296
     94  CG         9.9070   -5.6700   61.4400 C.3   237  PRO237      0.0237
     95  CD        10.8310   -4.5230   61.1420 C.3   237  PRO237      0.0939
     96  N         10.3620   -0.6510   67.7130 N.3   244  TYR244     -0.1241
     97  CA         9.5670   -1.4800   66.8160 C.3   244  TYR244      0.1605
     98  C          8.0660   -1.3130   67.0850 C.2   244  TYR244      0.2264
     99  O          7.2880   -1.1010   66.1580 O.2   244  TYR244     -0.2867
    100  CB        10.0160   -2.9460   66.9640 C.3   244  TYR244      0.0534
    101  CG         9.2440   -3.9730   66.1560 C.ar  244  TYR244     -0.0201
    102  CD1        8.5540   -3.6240   64.9930 C.ar  244  TYR244     -0.0009
    103  CD2        9.2350   -5.3120   66.5500 C.ar  244  TYR244     -0.0009
    104  CE1        7.8710   -4.5850   64.2480 C.ar  244  TYR244      0.0417
    105  CE2        8.5630   -6.2740   65.8120 C.ar  244  TYR244      0.0417
    106  CZ         7.8830   -5.9080   64.6680 C.ar  244  TYR244      0.1957
    107  OH         7.2180   -6.8760   63.9550 O.3   244  TYR244     -0.2866
    108  N          6.7050    1.9310   65.7180 N.3   247  TRP247     -0.1227
    109  CA         6.5710    1.8760   64.2640 C.3   247  TRP247      0.1737
    110  C          5.3370    1.0700   63.8700 C.2   247  TRP247      0.2596
    111  O          4.6170    1.4380   62.9410 O.2   247  TRP247     -0.2718
    112  CB         7.8110    1.2390   63.6230 C.3   247  TRP247      0.0564
    113  CG         9.0050    2.1500   63.6010 C.ar  247  TRP247      0.0003
    114  CD1       10.2230    1.9240   64.1800 C.ar  247  TRP247      0.0946
    115  CD2        9.0840    3.4450   62.9870 C.ar  247  TRP247      0.0152
    116  NE1       11.0520    3.0020   63.9690 N.ar  247  TRP247     -0.2442
    117  CE2       10.3800    3.9480   63.2400 C.ar  247  TRP247      0.0810
    118  CE3        8.1840    4.2280   62.2500 C.ar  247  TRP247      0.0012
    119  CZ2       10.8020    5.2030   62.7840 C.ar  247  TRP247      0.0191
    120  CZ3        8.6050    5.4850   61.7930 C.ar  247  TRP247      0.0001
    121  CH2        9.9030    5.9550   62.0670 C.ar  247  TRP247      0.0015
    122  N          5.0900   -0.0320   64.5720 N.am  248  THR248     -0.1953
    123  CA         3.9390   -0.8750   64.2630 C.3   248  THR248      0.1897
    124  C          2.6380   -0.1370   64.5570 C.2   248  THR248      0.2313
    125  O          1.6880   -0.2130   63.7750 O.2   248  THR248     -0.2863
    126  CB         3.9960   -2.2030   65.0480 C.3   248  THR248      0.1794
    127  OG1        5.1310   -2.9560   64.6010 O.3   248  THR248     -0.2208
    128  CG2        2.7340   -3.0330   64.8120 C.3   248  THR248      0.0378
    129  N          2.1520    2.3000   61.5940 N.3   251  ILE251     -0.1245
    130  CA         1.7410    1.7520   60.3170 C.3   251  ILE251      0.1561
    131  C          0.3270    1.1800   60.3970 C.2   251  ILE251      0.2260
    132  O         -0.4130    1.2310   59.4160 O.2   251  ILE251     -0.2867
    133  CB         2.7520    0.7000   59.7900 C.3   251  ILE251      0.0252
    134  CG1        2.6180    0.5990   58.2700 C.3   251  ILE251      0.0019
    135  CG2        2.5270   -0.6570   60.4520 C.3   251  ILE251      0.0019
    136  CD1        3.7520   -0.1500   57.6130 C.3   251  ILE251      0.0001
    137  N         -2.6200    2.0610   57.9700 N.3   255  PHE255     -0.1241
    138  CA        -3.3150    0.9690   57.2920 C.3   255  PHE255      0.1605
    139  C         -4.8150    1.0240   57.5560 C.2   255  PHE255      0.2264
    140  O         -5.6250    0.8790   56.6360 O.2   255  PHE255     -0.2867
    141  CB        -2.7970   -0.3930   57.7640 C.3   255  PHE255      0.0534
    142  CG        -1.4840   -0.8020   57.1490 C.ar  255  PHE255     -0.0203
    143  CD1       -0.9240   -0.0740   56.1060 C.ar  255  PHE255     -0.0042
    144  CD2       -0.8210   -1.9370   57.6060 C.ar  255  PHE255     -0.0042
    145  CE1        0.2820   -0.4710   55.5240 C.ar  255  PHE255     -0.0003
    146  CE2        0.3840   -2.3420   57.0290 C.ar  255  PHE255     -0.0003
    147  CZ         0.9330   -1.6040   55.9860 C.ar  255  PHE255     -0.0000
    148  N         -4.4150   -6.4040   56.4180 N.3   272  MET272     -0.1245
    149  CA        -4.0450   -5.6350   57.6050 C.3   272  MET272      0.1570
    150  C         -4.6940   -4.2580   57.7190 C.2   272  MET272      0.2261
    151  O         -4.3530   -3.4850   58.6160 O.2   272  MET272     -0.2867
    152  CB        -2.5240   -5.4670   57.6620 C.3   272  MET272      0.0387
    153  CG        -1.7640   -6.7740   57.7530 C.3   272  MET272      0.0595
    154  SD         0.0200   -6.5210   57.7280 S.3   272  MET272     -0.1393
    155  CE         0.2550   -5.6370   59.2580 C.3   272  MET272      0.0692
    156  N          2.2330   -9.2380   62.4330 N.3   284  GLN284     -0.1245
    157  CA         3.6490   -8.9440   62.6020 C.3   284  GLN284      0.1566
    158  C          4.4690  -10.2240   62.4860 C.2   284  GLN284      0.2260
    159  O          5.5460  -10.2290   61.8860 O.2   284  GLN284     -0.2867
    160  CB         3.9050   -8.2730   63.9520 C.3   284  GLN284      0.0367
    161  CG         3.4340   -6.8310   64.0000 C.3   284  GLN284      0.0905
    162  CD         3.9450   -6.0270   62.8190 C.2   284  GLN284      0.2608
    163  OE1        5.1510   -5.8990   62.6150 O.2   284  GLN284     -0.2717
    164  NE2        3.0240   -5.4840   62.0300 N.am  284  GLN284     -0.0878
    165  N          4.6140  -10.9530   58.8540 N.3   287  PHE287     -0.1241
    166  CA         5.4900   -9.9920   58.1840 C.3   287  PHE287      0.1605
    167  C          6.9440  -10.4140   58.3940 C.2   287  PHE287      0.2264
    168  O          7.7360  -10.4350   57.4550 O.2   287  PHE287     -0.2867
    169  CB         5.2400   -8.5910   58.7590 C.3   287  PHE287      0.0534
    170  CG         6.1470   -7.5170   58.2130 C.ar  287  PHE287     -0.0203
    171  CD1        6.2830   -7.3180   56.8440 C.ar  287  PHE287     -0.0042
    172  CD2        6.8210   -6.6630   59.0850 C.ar  287  PHE287     -0.0042
    173  CE1        7.0800   -6.2770   56.3480 C.ar  287  PHE287     -0.0003
    174  CE2        7.6170   -5.6230   58.6020 C.ar  287  PHE287     -0.0003
    175  CZ         7.7430   -5.4310   57.2330 C.ar  287  PHE287     -0.0000
    176  N          8.6540  -12.0660   55.0920 N.3   291  ILE291     -0.1245
    177  CA         9.3520  -10.9700   54.4280 C.3   291  ILE291      0.1561
    178  C         10.6380  -10.4900   55.0900 C.2   291  ILE291      0.2260
    179  O         11.7240  -10.5750   54.5040 O.2   291  ILE291     -0.2867
    180  CB         8.4070   -9.7430   54.2710 C.3   291  ILE291      0.0252
    181  CG1        7.1910  -10.1260   53.4240 C.3   291  ILE291      0.0019
    182  CG2        9.1520   -8.5770   53.6220 C.3   291  ILE291      0.0019
    183  CD1        6.1880   -9.0080   53.2420 C.3   291  ILE291      0.0001
@<TRIPOS>BOND
     1    43    44    2
     2    43    42    1
     3    45    42    1
     4    45    46    1
     5    48    47   ar
     6    42    41    1
     7    46    47    1
     8    47    49   ar
     9    50    51    1
    10    59    60    2
    11    59    58    1
    12    57    58    1
    13    52    51    1
    14    52    53    2
    15    55    54    1
    16    51    54    1
    17    58    61    1
    18    54    56    1
    19    61    62    1
    20    62    63    1
    21    23    24    1
    22    31    32    1
    23    32    33    1
    24    32    35    1
    25    63    64    1
    26    30    28   am
    27    24    25    1
    28    24    27    1
    29    25    26    2
    30    38    40   ar
    31    38    36   ar
    32    40    39   ar
    33    33    34    2
    34    36    35    1
    35    36    37   ar
    36    39    37   ar
    37    28    27    1
    38    28    29    2
    39    72    70   ar
    40    70    69    1
    41    70    71   ar
    42   183   181    1
    43    79    78    1
    44    69    66    1
    45   181   180    1
    46   182   180    1
    47    22    20   ar
    48    22    21   ar
    49    20    18   ar
    50    21    19   ar
    51    78    80    1
    52    78    77    1
    53    18    19   ar
    54    18    17    1
    55   180   177    1
    56   177   178    1
    57   177   176    1
    58    17    14    1
    59   179   178    2
    60    66    65    1
    61    66    67    1
    62    16    15    2
    63    77    74    1
    64   145   147   ar
    65   145   143   ar
    66    67    73   am
    67    67    68    2
    68    73    74    1
    69    14    15    1
    70    14    13    1
    71   147   146   ar
    72   143   142   ar
    73    74    75    1
    74   173   171   ar
    75   173   175   ar
    76   148   149    1
    77   140   139    2
    78   171   170   ar
    79    13     3   am
    80   146   144   ar
    81   142   144   ar
    82   142   141    1
    83   175   174   ar
    84   138   139    1
    85   138   141    1
    86   138   137    1
    87    10     8   ar
    88    10    11   ar
    89   168   167    2
    90     8     6   ar
    91   149   152    1
    92   149   150    1
    93   136   134    1
    94    75    76    2
    95   152   153    1
    96   150   151    2
    97   154   153    1
    98   154   155    1
    99     3     4    2
   100     3     2    1
   101   166   167    1
   102   166   169    1
   103   166   165    1
   104   170   169    1
   105   170   172   ar
   106    12    11    1
   107   134   133    1
   108    11     9   ar
   109   174   172   ar
   110     6     5    1
   111     6     7   ar
   112     5     2    1
   113     2     1    1
   114   132   131    2
   115     9     7   ar
   116   133   130    1
   117   133   135    1
   118   130   131    1
   119   130   129    1
   120    87    86    2
   121    81    82    1
   122    88    86   am
   123    86    85    1
   124    95    94    1
   125    95    89    1
   126    94    93    1
   127    85    82    1
   128   120   121   ar
   129   120   118   ar
   130   159   158    2
   131   164   162   am
   132    82    83    1
   133   121   119   ar
   134   118   115   ar
   135   156   157    1
   136    93    90    1
   137    89    83   am
   138    89    90    1
   139   158   157    1
   140   157   160    1
   141   163   162    2
   142   119   117   ar
   143   162   161    1
   144   111   110    2
   145   115   117   ar
   146   115   113   ar
   147    83    84    2
   148   117   116   ar
   149    90    91    1
   150   113   112    1
   151   113   114   ar
   152   112   109    1
   153   125   124    2
   154   110   109    1
   155   110   122   am
   156    91    92    2
   157   160   161    1
   158   107   106    1
   159   116   114   ar
   160   104   106   ar
   161   104   102   ar
   162   123   124    1
   163   123   122    1
   164   123   126    1
   165   109   108    1
   166   127   126    1
   167   106   105   ar
   168   128   126    1
   169   102   101   ar
   170   105   103   ar
   171   101   103   ar
   172   101   100    1
   173    99    98    2
   174    97   100    1
   175    97    98    1
   176    97    96    1
