@<TRIPOS>MOLECULE
tmp/2pwbA00.pdb
 100 95 0 0 0
SMALL
GASTEIGER

@<TRIPOS>ATOM
      1  N        -11.5510   20.7420   -9.9030 N.3    69  HIS69      -0.1241
      2  CA       -12.3910   19.6590   -9.3510 C.3    69  HIS69       0.1621
      3  C        -11.9080   19.1770   -7.9720 C.2    69  HIS69       0.2264
      4  O        -12.7010   19.0310   -7.0550 O.2    69  HIS69      -0.2867
      5  CB       -12.3830   18.4910  -10.3480 C.3    69  HIS69       0.0745
      6  CG       -13.3070   17.3620  -10.0190 C.ar   69  HIS69       0.0817
      7  ND1      -12.8980   16.2300   -9.3360 N.ar   69  HIS69      -0.2268
      8  CD2      -14.6060   17.1420  -10.3680 C.ar   69  HIS69       0.1154
      9  CE1      -13.9090   15.3830   -9.2560 C.ar   69  HIS69       0.1986
     10  NE2      -14.9510   15.9070   -9.8790 N.ar   69  HIS69      -0.2212
     11  N         -8.7810   16.6010  -15.9050 N.3   100  GLY100     -0.1225
     12  CA        -9.6190   15.7630  -15.0530 C.3   100  GLY100      0.1811
     13  C         -9.6100   14.3200  -15.4480 C.2   100  GLY100      0.2280
     14  O        -10.5080   13.5620  -15.0870 O.2   100  GLY100     -0.2866
     15  N        -13.6050   10.9880   -5.8270 N.3   132  SER132     -0.1202
     16  CA       -14.6650   11.4810   -6.7130 C.3   132  SER132      0.2020
     17  C        -14.2290   11.2550   -8.1570 C.2   132  SER132      0.2619
     18  O        -13.9200   12.1830   -8.8770 O.2   132  SER132     -0.2717
     19  CB       -14.9590   12.9620   -6.4430 C.3   132  SER132      0.2103
     20  OG       -15.5440   13.1070   -5.1520 O.3   132  SER132     -0.2182
     21  N        -14.1890    9.9810   -8.5600 N.am  133  LEU133     -0.1965
     22  CA       -13.7360    9.6280   -9.8810 C.3   133  LEU133      0.1728
     23  C        -14.2260    8.2120  -10.1840 C.2   133  LEU133      0.2617
     24  O        -14.7320    7.4940   -9.3070 O.2   133  LEU133     -0.2715
     25  CB       -12.1930    9.6730   -9.9910 C.3   133  LEU133      0.0311
     26  CG       -11.3640    8.8530   -8.9840 C.3   133  LEU133      0.0022
     27  CD1      -11.4350    7.3200   -9.2200 C.3   133  LEU133      0.0001
     28  CD2       -9.8900    9.2840   -8.9110 C.3   133  LEU133      0.0001
     29  N        -14.0970    7.8150  -11.4400 N.am  134  GLY134     -0.1940
     30  CA       -14.4280    6.4550  -11.7990 C.3   134  GLY134      0.2014
     31  C        -14.4790    6.3110  -13.3130 C.2   134  GLY134      0.2639
     32  O        -14.3540    7.2980  -14.0570 O.2   134  GLY134     -0.2714
     33  N        -14.6540    5.0870  -13.7650 N.am  135  GLY135     -0.1954
     34  CA       -14.8000    4.8330  -15.1830 C.3   135  GLY135      0.1869
     35  C        -15.4150    3.4280  -15.3100 C.2   135  GLY135      0.2309
     36  O        -16.0280    2.9460  -14.3640 O.2   135  GLY135     -0.2863
     37  N        -17.4500    7.8130   -5.5980 N.3   158  ALA158     -0.1245
     38  CA       -18.6310    8.3160   -6.3110 C.3   158  ALA158      0.1562
     39  C        -19.3370    7.1740   -7.0350 C.2   158  ALA158      0.2260
     40  O        -18.6620    6.3340   -7.6400 O.2   158  ALA158     -0.2867
     41  CB       -18.2210    9.3870   -7.3350 C.3   158  ALA158      0.0290
     42  N        -21.0470    7.5250   -9.7500 N.3   160  GLY160     -0.1210
     43  CA       -20.9360    7.8050  -11.1790 C.3   160  GLY160      0.1956
     44  C        -22.1380    8.5960  -11.6990 C.2   160  GLY160      0.2612
     45  O        -23.2050    8.5940  -11.0730 O.2   160  GLY160     -0.2717
     46  N        -21.9680    9.2730  -12.8430 N.am  161  ASN161     -0.1960
     47  CA       -23.0160   10.1690  -13.3180 C.3   161  ASN161      0.1819
     48  C        -23.6490    9.7310  -14.6430 C.2   161  ASN161      0.2621
     49  O        -23.9020   10.5910  -15.5080 O.2   161  ASN161     -0.2715
     50  CB       -22.4250   11.5770  -13.4850 C.3   161  ASN161      0.1195
     51  CG       -21.6760   12.0640  -12.2300 C.2   161  ASN161      0.2630
     52  OD1      -22.1880   11.9950  -11.1140 O.2   161  ASN161     -0.2716
     53  ND2      -20.4340   12.5000  -12.4160 N.am  161  ASN161     -0.0877
     54  N        -23.9600    8.4630  -14.7890 N.am  162  ASN162     -0.1972
     55  CA       -24.4890    7.9410  -16.0530 C.3   162  ASN162      0.1688
     56  C        -25.9810    7.6000  -15.9870 C.2   162  ASN162      0.2292
     57  O        -26.5300    7.0420  -16.9620 O.2   162  ASN162     -0.2864
     58  CB       -23.6820    6.6990  -16.4360 C.3   162  ASN162      0.1181
     59  CG       -22.1600    6.8920  -16.2350 C.2   162  ASN162      0.2629
     60  OD1      -21.4710    7.3900  -17.1230 O.2   162  ASN162     -0.2716
     61  ND2      -21.6510    6.5090  -15.0670 N.am  162  ASN162     -0.0877
     62  N        -21.1960   23.4250   -8.5910 N.3   220  ILE220     -0.1231
     63  CA       -21.2340   22.4230   -9.6620 C.3   220  ILE220      0.1692
     64  C        -21.9820   21.2030   -9.1330 C.2   220  ILE220      0.2593
     65  O        -22.2780   21.1150   -7.9080 O.2   220  ILE220     -0.2718
     66  CB       -19.8160   22.0200  -10.1660 C.3   220  ILE220      0.0266
     67  CG1      -18.9000   21.5710   -9.0170 C.3   220  ILE220      0.0019
     68  CG2      -19.1760   23.1690  -10.9370 C.3   220  ILE220      0.0020
     69  CD1      -17.5500   20.8780   -9.5140 C.3   220  ILE220      0.0001
     70  N        -22.2680   20.2580  -10.0220 N.am  221  SER221     -0.1938
     71  CA       -23.0970   19.1230   -9.6350 C.3   221  SER221      0.2055
     72  C        -22.4490   17.8000  -10.0440 C.2   221  SER221      0.2644
     73  O        -21.7630   17.7410  -11.0700 O.2   221  SER221     -0.2714
     74  CB       -24.4630   19.2070  -10.3460 C.3   221  SER221      0.2130
     75  OG       -25.1400   20.4110  -10.0550 O.3   221  SER221     -0.2179
     76  N        -22.6910   16.7540   -9.2690 N.am  222  GLY222     -0.1939
     77  CA       -22.1920   15.4180   -9.6240 C.3   222  GLY222      0.2014
     78  C        -22.1420   14.5060   -8.4270 C.2   222  GLY222      0.2640
     79  O        -22.2610   14.9730   -7.2720 O.2   222  GLY222     -0.2714
     80  N        -21.9870   13.1820   -8.6700 N.am  223  THR223     -0.1936
     81  CA       -21.7850   12.2550   -7.5390 C.3   223  THR223      0.2028
     82  C        -20.4200   12.6080   -6.9570 C.2   223  THR223      0.2643
     83  O        -20.1240   12.2610   -5.8250 O.2   223  THR223     -0.2714
     84  CB       -21.9050   10.7750   -7.9300 C.3   223  THR223      0.1808
     85  OG1      -21.0870   10.5300   -9.0900 O.3   223  THR223     -0.2208
     86  CG2      -23.3450   10.4170   -8.2240 C.3   223  THR223      0.0379
     87  N        -19.6330   13.3320   -7.7080 N.am  224  SER224     -0.1935
     88  CA       -18.3380   13.7770   -7.2150 C.3   224  SER224      0.2055
     89  C        -18.5110   14.7210   -6.0460 C.2   224  SER224      0.2642
     90  O        -17.6380   14.8100   -5.1790 O.2   224  SER224     -0.2714
     91  CB       -17.5670   14.5080   -8.3160 C.3   224  SER224      0.2130
     92  OG       -16.8210   13.6000   -9.1050 O.3   224  SER224     -0.2179
     93  N        -19.6180   15.4760   -6.0300 N.am  225  MET225     -0.1976
     94  CA       -19.8980   16.4250   -4.9540 C.3   225  MET225      0.1605
     95  C        -20.5340   15.7500   -3.7530 C.2   225  MET225      0.2287
     96  O        -20.3830   16.2080   -2.6230 O.2   225  MET225     -0.2864
     97  CB       -20.7970   17.5620   -5.4520 C.3   225  MET225      0.0413
     98  CG       -20.1180   18.5870   -6.3540 C.3   225  MET225      0.0598
     99  SD       -19.5560   17.8930   -7.9200 S.3   225  MET225     -0.1393
    100  CE       -17.7910   17.7970   -7.6260 C.3   225  MET225      0.0692
@<TRIPOS>BOND
     1    60    59    2
     2    57    56    2
     3    58    59    1
     4    58    55    1
     5    59    61   am
     6    55    56    1
     7    55    54    1
     8    11    12    1
     9    49    48    2
    10    13    14    2
    11    13    12    1
    12    35    34    1
    13    35    36    2
    14    34    33    1
    15    54    48   am
    16    48    47    1
    17    32    31    2
    18    33    31   am
    19    50    47    1
    20    50    51    1
    21    47    46    1
    22    31    30    1
    23    46    44   am
    24    53    51   am
    25    51    52    2
    26    30    29    1
    27    44    43    1
    28    44    45    2
    29    29    23   am
    30    43    42    1
    31    73    72    2
    32    68    66    1
    33     8     6   ar
    34     8    10   ar
    35     5     6    1
    36     5     2    1
    37    74    75    1
    38    74    71    1
    39    23    22    1
    40    23    24    2
    41    66    63    1
    42    66    67    1
    43    72    71    1
    44    72    76   am
    45    70    71    1
    46    70    64   am
    47     6     7   ar
    48    25    22    1
    49    25    26    1
    50     1     2    1
    51    22    21    1
    52    10     9   ar
    53    63    64    1
    54    63    62    1
    55    77    76    1
    56    77    78    1
    57    69    67    1
    58     2     3    1
    59     7     9   ar
    60    27    26    1
    61    64    65    2
    62    92    91    1
    63    85    84    1
    64    26    28    1
    65    18    17    2
    66    80    78   am
    67    80    81    1
    68    21    17   am
    69    78    79    2
    70    91    88    1
    71    86    84    1
    72    17    16    1
    73     3     4    2
    74    84    81    1
    75    99   100    1
    76    99    98    1
    77    87    88    1
    78    87    82   am
    79    40    39    2
    80    81    82    1
    81    41    38    1
    82    88    89    1
    83    39    38    1
    84    82    83    2
    85    16    19    1
    86    16    15    1
    87    19    20    1
    88    98    97    1
    89    38    37    1
    90    89    93   am
    91    89    90    2
    92    93    94    1
    93    97    94    1
    94    94    95    1
    95    95    96    2
