@<TRIPOS>MOLECULE
tmp/2pwdA00.pdb
 136 129 0 0 0
SMALL
GASTEIGER

@<TRIPOS>ATOM
      1  N          5.5540   14.1940    5.6550 N.3    61  ASP61      -0.1239
      2  CA         5.3210   13.0270    4.7880 C.3    61  ASP61       0.1674
      3  C          3.9170   12.5050    5.0510 C.2    61  ASP61       0.2266
      4  O          3.6910   11.3020    5.1670 O.2    61  ASP61      -0.2867
      5  CB         6.3760   11.9280    5.0470 C.3    61  ASP61       0.1410
      6  CG         6.2820   10.7600    4.0450 C.2    61  ASP61       0.3668
      7  OD1        5.7030   10.9330    2.9480 O.co2  61  ASP61      -0.2456
      8  OD2        6.7970    9.6630    4.3510 O.co2  61  ASP61      -0.2456
      9  N          3.4170   10.0110    7.9560 N.3    64  TYR64      -0.1241
     10  CA         4.4930    9.0430    8.1780 C.3    64  TYR64       0.1605
     11  C          5.6900    9.5740    8.9740 C.2    64  TYR64       0.2264
     12  O          6.7130    8.8910    9.1100 O.2    64  TYR64      -0.2867
     13  CB         4.9320    8.4500    6.8400 C.3    64  TYR64       0.0534
     14  CG         3.9330    7.4530    6.3290 C.ar   64  TYR64      -0.0201
     15  CD1        3.9170    6.1370    6.8120 C.ar   64  TYR64      -0.0009
     16  CD2        2.9550    7.8280    5.4080 C.ar   64  TYR64      -0.0009
     17  CE1        2.9400    5.2130    6.3790 C.ar   64  TYR64       0.0417
     18  CE2        1.9820    6.9210    4.9830 C.ar   64  TYR64       0.0417
     19  CZ         1.9830    5.6170    5.4720 C.ar   64  TYR64       0.1957
     20  OH         1.0250    4.7410    5.0290 O.3    64  TYR64      -0.2866
     21  N         11.0120    4.8370   11.7540 N.3   104  HIS104     -0.1241
     22  CA        11.4750    6.1880   12.0150 C.3   104  HIS104      0.1621
     23  C         10.3530    6.9600   12.6970 C.2   104  HIS104      0.2264
     24  O          9.2000    6.5250   12.6900 O.2   104  HIS104     -0.2867
     25  CB        11.8050    6.9210   10.6880 C.3   104  HIS104      0.0745
     26  CG        10.7560    6.7550    9.6240 C.ar  104  HIS104      0.0817
     27  ND1       10.7800    5.7160    8.7150 N.ar  104  HIS104     -0.2268
     28  CD2        9.6180    7.4470    9.3690 C.ar  104  HIS104      0.1154
     29  CE1        9.7030    5.7710    7.9510 C.ar  104  HIS104      0.1986
     30  NE2        8.9790    6.8120    8.3280 N.ar  104  HIS104     -0.2212
     31  N         14.1210   10.1530   -0.1830 N.3   145  PHE145     -0.1241
     32  CA        13.5350   11.4660   -0.4510 C.3   145  PHE145      0.1605
     33  C         14.5170   12.5680   -0.8490 C.2   145  PHE145      0.2264
     34  O         14.2250   13.7580   -0.6940 O.2   145  PHE145     -0.2867
     35  CB        12.6790   11.9300    0.7470 C.3   145  PHE145      0.0534
     36  CG        11.4510   11.0830    0.9880 C.ar  145  PHE145     -0.0203
     37  CD1       10.9450   10.2420   -0.0050 C.ar  145  PHE145     -0.0042
     38  CD2       10.7700   11.1650    2.2030 C.ar  145  PHE145     -0.0042
     39  CE1        9.7810    9.5000    0.2140 C.ar  145  PHE145     -0.0003
     40  CE2        9.6170   10.4400    2.4320 C.ar  145  PHE145     -0.0003
     41  CZ         9.1100    9.6020    1.4470 C.ar  145  PHE145     -0.0000
     42  N         14.4440    8.0080    4.9460 N.3   164  PHE164     -0.1241
     43  CA        13.4680    8.8190    4.2550 C.3   164  PHE164      0.1605
     44  C         13.7730   10.3040    4.4140 C.2   164  PHE164      0.2264
     45  O         14.9170   10.7010    4.2320 O.2   164  PHE164     -0.2867
     46  CB        12.0540    8.4120    4.6960 C.3   164  PHE164      0.0534
     47  CG        11.7240    6.9920    4.3160 C.ar  164  PHE164     -0.0203
     48  CD1       12.0580    5.9350    5.1580 C.ar  164  PHE164     -0.0042
     49  CD2       11.1900    6.7080    3.0620 C.ar  164  PHE164     -0.0042
     50  CE1       11.8630    4.6000    4.7530 C.ar  164  PHE164     -0.0003
     51  CE2       10.9930    5.3870    2.6430 C.ar  164  PHE164     -0.0003
     52  CZ        11.3270    4.3350    3.4840 C.ar  164  PHE164     -0.0000
     53  N         12.5690   12.6710    9.3390 N.3   168  GLN168     -0.1245
     54  CA        12.1240   11.3260    9.6980 C.3   168  GLN168      0.1566
     55  C         13.3440   10.5010   10.1140 C.2   168  GLN168      0.2260
     56  O         13.7320    9.5750    9.4230 O.2   168  GLN168     -0.2867
     57  CB        11.4430   10.6470    8.4920 C.3   168  GLN168      0.0367
     58  CG        10.0340   11.1700    8.1930 C.3   168  GLN168      0.0905
     59  CD         9.5310   10.7760    6.8110 C.2   168  GLN168      0.2608
     60  OE1       10.0570   11.2340    5.7940 O.2   168  GLN168     -0.2717
     61  NE2        8.5040    9.9360    6.7690 N.am  168  GLN168     -0.0878
     62  N         -0.4770   -2.5650   10.0770 N.3   198  ARG198     -0.1245
     63  CA         0.3050   -2.6850    8.8470 C.3   198  ARG198      0.1563
     64  C          1.6110   -1.9930    9.1840 C.2   198  ARG198      0.2260
     65  O          1.6270   -0.8140    9.5010 O.2   198  ARG198     -0.2867
     66  CB        -0.4240   -1.9740    7.6980 C.3   198  ARG198      0.0307
     67  CG         0.3440   -1.8920    6.3750 C.3   198  ARG198      0.0489
     68  CD         1.1640   -0.6120    6.3040 C.3   198  ARG198      0.2205
     69  NE         1.6070   -0.2780    4.9450 N.pl3 198  ARG198     -0.0865
     70  CZ         2.3190    0.8040    4.6490 C.cat 198  ARG198      0.5346
     71  NH1        2.6640    1.6500    5.6090 N.pl3 198  ARG198      0.1354
     72  NH2        2.6930    1.0420    3.3960 N.pl3 198  ARG198      0.1354
     73  N          4.8480   -0.2920    8.3440 N.3   200  ASP200     -0.1225
     74  CA         5.5200    0.5220    7.3460 C.3   200  ASP200      0.1805
     75  C          7.0030    0.1140    7.2240 C.2   200  ASP200      0.2598
     76  O          7.7030    0.0230    8.2390 O.2   200  ASP200     -0.2718
     77  CB         5.4120    1.9780    7.7940 C.3   200  ASP200      0.1424
     78  CG         5.9900    2.9460    6.7930 C.2   200  ASP200      0.3668
     79  OD1        5.4760    2.9490    5.6680 O.co2 200  ASP200     -0.2456
     80  OD2        6.9300    3.7030    7.1340 O.co2 200  ASP200     -0.2456
     81  N          7.4700   -0.0820    5.9910 N.am  201  THR201     -0.1953
     82  CA         8.8650   -0.4760    5.7010 C.3   201  THR201      0.1897
     83  C          9.4330   -1.3800    6.8000 C.2   201  THR201      0.2313
     84  O         10.4790   -1.1320    7.4070 O.2   201  THR201     -0.2863
     85  CB         9.7850    0.7750    5.4510 C.3   201  THR201      0.1794
     86  OG1       11.0980    0.3270    5.1010 O.3   201  THR201     -0.2208
     87  CG2        9.8740    1.6820    6.6660 C.3   201  THR201      0.0378
     88  N          4.7760   -4.2840    5.2650 N.3   254  GLU254     -0.1245
     89  CA         5.0520   -3.6860    3.9690 C.3   254  GLU254      0.1567
     90  C          6.5170   -4.0230    3.7680 C.2   254  GLU254      0.2260
     91  O          7.3940   -3.3450    4.3280 O.2   254  GLU254     -0.2867
     92  CB         4.9230   -2.1660    3.9920 C.3   254  GLU254      0.0388
     93  CG         5.1540   -1.5900    2.6090 C.3   254  GLU254      0.1160
     94  CD         5.7760   -0.1980    2.5780 C.2   254  GLU254      0.3649
     95  OE1        5.5880    0.4900    1.5370 O.co2 254  GLU254     -0.2457
     96  OE2        6.4590    0.2000    3.5570 O.co2 254  GLU254     -0.2457
     97  N         -1.6490    4.2760   -1.7060 N.3   326  HIS326     -0.1226
     98  CA        -1.3780    5.7040   -1.6270 C.3   326  HIS326      0.1752
     99  C         -0.0080    6.1210   -2.1460 C.2   326  HIS326      0.2596
    100  O          0.2860    7.3030   -2.1920 O.2   326  HIS326     -0.2718
    101  CB        -1.5010    6.1480   -0.1800 C.3   326  HIS326      0.0759
    102  CG        -0.4990    5.4940    0.7070 C.ar  326  HIS326      0.0818
    103  ND1       -0.4870    4.1340    0.9260 N.ar  326  HIS326     -0.2268
    104  CD2        0.5940    5.9880    1.3340 C.ar  326  HIS326      0.1154
    105  CE1        0.5750    3.8160    1.6470 C.ar  326  HIS326      0.1986
    106  NE2        1.2490    4.9220    1.9060 N.ar  326  HIS326     -0.2212
    107  N          0.8260    5.1560   -2.5320 N.am  327  ASP327     -0.1974
    108  CA         2.1750    5.4720   -3.0230 C.3   327  ASP327      0.1709
    109  C          2.3550    5.1500   -4.4870 C.2   327  ASP327      0.2293
    110  O          3.4970    5.1330   -4.9800 O.2   327  ASP327     -0.2864
    111  CB         3.2380    4.6370   -2.3030 C.3   327  ASP327      0.1436
    112  CG         3.3800    4.9700   -0.8470 C.2   327  ASP327      0.3671
    113  OD1        3.0940    6.1110   -0.4280 O.co2 327  ASP327     -0.2456
    114  OD2        3.8180    4.0590   -0.1180 O.co2 327  ASP327     -0.2456
    115  N          3.0150    9.5100   -6.4240 N.3   414  ARG414     -0.1245
    116  CA         2.1310    9.0730   -5.3480 C.3   414  ARG414      0.1563
    117  C          0.9260   10.0030   -5.2810 C.2   414  ARG414      0.2260
    118  O         -0.1590    9.5800   -4.8630 O.2   414  ARG414     -0.2867
    119  CB         2.8680    9.1100   -4.0080 C.3   414  ARG414      0.0307
    120  CG         4.1360    8.2800   -4.0310 C.3   414  ARG414      0.0489
    121  CD         4.7310    8.0660   -2.6670 C.3   414  ARG414      0.2205
    122  NE         5.1530    9.2820   -1.9600 N.pl3 414  ARG414     -0.0865
    123  CZ         5.5840    9.2690   -0.6990 C.cat 414  ARG414      0.5346
    124  NH1        5.6370    8.1170   -0.0380 N.pl3 414  ARG414      0.1354
    125  NH2        5.9570   10.3910   -0.0980 N.pl3 414  ARG414      0.1354
    126  N         -3.5890   10.3400   -4.3750 N.3   418  ARG418     -0.1245
    127  CA        -3.9960   11.1430   -3.2470 C.3   418  ARG418      0.1563
    128  C         -4.9710   12.2530   -3.5210 C.2   418  ARG418      0.2260
    129  O         -5.2560   13.0200   -2.6200 O.2   418  ARG418     -0.2867
    130  CB        -2.7600   11.7160   -2.5650 C.3   418  ARG418      0.0307
    131  CG        -1.7830   10.5940   -2.1540 C.3   418  ARG418      0.0489
    132  CD        -0.5090   11.1120   -1.5800 C.3   418  ARG418      0.2205
    133  NE         0.3590    9.9680   -1.2620 N.pl3 418  ARG418     -0.0865
    134  CZ         1.4710   10.0530   -0.5470 C.cat 418  ARG418      0.5346
    135  NH1        1.8740   11.2300   -0.0770 N.pl3 418  ARG418      0.1354
    136  NH2        2.1650    8.9440   -0.2700 N.pl3 418  ARG418      0.1354
@<TRIPOS>BOND
     1   115   116    1
     2   116   117    1
     3   116   119    1
     4   117   118    2
     5   110   109    2
     6   109   108    1
     7   126   127    1
     8   120   119    1
     9   120   121    1
    10   128   127    1
    11   128   129    2
    12   127   130    1
    13   108   107    1
    14   108   111    1
    15   121   122    1
    16   130   131    1
    17   107    99   am
    18   111   112    1
    19   100    99    2
    20   131   132    1
    21    99    98    1
    22   122   123    2
    23    97    98    1
    24    98   101    1
    25   132   133    1
    26   133   134    2
    27    33    34    2
    28    33    32    1
    29   112   113   ar
    30   112   114   ar
    31   123   125    1
    32   123   124    1
    33   134   136    1
    34   134   135    1
    35    32    31    1
    36    32    35    1
    37   101   102    1
    38    37    39   ar
    39    37    36   ar
    40    39    41   ar
    41   102   103   ar
    42   102   104   ar
    43    35    36    1
    44   103   105   ar
    45    36    38   ar
    46   104   106   ar
    47    41    40   ar
    48    95    94   ar
    49   105   106   ar
    50    38    40   ar
    51    94    93    1
    52    94    96   ar
    53    93    92    1
    54    51    49   ar
    55    51    52   ar
    56     7     6   ar
    57    49    47   ar
    58    72    70    1
    59    52    50   ar
    60    90    89    1
    61    90    91    2
    62    89    92    1
    63    89    88    1
    64     6     8   ar
    65     6     5    1
    66    45    44    2
    67    43    44    1
    68    43    46    1
    69    43    42    1
    70    47    46    1
    71    47    48   ar
    72    70    69    2
    73    70    71    1
    74    50    48   ar
    75     2     5    1
    76     2     3    1
    77     2     1    1
    78    69    68    1
    79    18    16   ar
    80    18    19   ar
    81    20    19    1
    82     3     4    2
    83    86    85    1
    84    16    14   ar
    85    85    82    1
    86    85    87    1
    87    19    17   ar
    88    79    78   ar
    89    82    81    1
    90    82    83    1
    91    60    59    2
    92    81    75   am
    93    68    67    1
    94    14    15   ar
    95    14    13    1
    96    67    66    1
    97    17    15   ar
    98    61    59   am
    99    78    80   ar
   100    78    77    1
   101    83    84    2
   102    59    58    1
   103    13    10    1
   104    75    74    1
   105    75    76    2
   106    74    77    1
   107    74    73    1
   108    66    63    1
   109    29    30   ar
   110    29    27   ar
   111     9    10    1
   112    10    11    1
   113    58    57    1
   114    30    28   ar
   115    57    54    1
   116    27    26   ar
   117    63    64    1
   118    63    62    1
   119    11    12    2
   120    64    65    2
   121    53    54    1
   122    28    26   ar
   123    56    55    2
   124    26    25    1
   125    54    55    1
   126    25    22    1
   127    21    22    1
   128    22    23    1
   129    24    23    2
