@<TRIPOS>MOLECULE
tmp/2pwgB00.pdb
 149 143 0 0 0
SMALL
GASTEIGER

@<TRIPOS>ATOM
      1  N        -20.2800   45.6430   79.3960 N.3    60  ASP60      -0.1239
      2  CA       -20.5040   45.7240   77.9560 C.3    60  ASP60       0.1674
      3  C        -21.9000   45.1720   77.6190 C.2    60  ASP60       0.2266
      4  O        -22.0830   44.4140   76.6550 O.2    60  ASP60      -0.2867
      5  CB       -19.4280   44.9410   77.2160 C.3    60  ASP60       0.1410
      6  CG       -19.5160   45.1020   75.7070 C.2    60  ASP60       0.3668
      7  OD1      -20.1240   46.0890   75.2330 O.co2  60  ASP60      -0.2456
      8  OD2      -18.9590   44.2390   74.9940 O.co2  60  ASP60      -0.2456
      9  N        -22.4180   41.3760   76.8990 N.3    63  TYR63      -0.1241
     10  CA       -21.2900   40.7190   76.2480 C.3    63  TYR63       0.1605
     11  C        -20.1140   40.3240   77.1530 C.2    63  TYR63       0.2264
     12  O        -19.0860   39.8550   76.6690 O.2    63  TYR63      -0.2867
     13  CB       -20.8200   41.5450   75.0430 C.3    63  TYR63       0.0534
     14  CG       -21.8140   41.4740   73.8900 C.ar   63  TYR63      -0.0201
     15  CD1      -21.7760   40.4240   72.9510 C.ar   63  TYR63      -0.0009
     16  CD2      -22.8420   42.4170   73.7800 C.ar   63  TYR63      -0.0009
     17  CE1      -22.7470   40.3270   71.9330 C.ar   63  TYR63       0.0417
     18  CE2      -23.8030   42.3260   72.7830 C.ar   63  TYR63       0.0417
     19  CZ       -23.7590   41.2870   71.8660 C.ar   63  TYR63       0.1957
     20  OH       -24.7530   41.2130   70.9210 O.3    63  TYR63      -0.2866
     21  N        -14.5630   35.4870   74.5430 N.3   103  HIS103     -0.1241
     22  CA       -14.1370   35.9650   75.8560 C.3   103  HIS103      0.1621
     23  C        -15.2850   35.8170   76.8460 C.2   103  HIS103      0.2264
     24  O        -16.4410   35.7000   76.4470 O.2   103  HIS103     -0.2867
     25  CB       -13.7680   37.4530   75.7720 C.3   103  HIS103      0.0745
     26  CG       -14.8220   38.2810   75.1030 C.ar  103  HIS103      0.0817
     27  ND1      -14.9310   38.3730   73.7300 N.ar  103  HIS103     -0.2268
     28  CD2      -15.8800   38.9620   75.6110 C.ar  103  HIS103      0.1154
     29  CE1      -16.0120   39.0690   73.4210 C.ar  103  HIS103      0.1986
     30  NE2      -16.6050   39.4400   74.5430 N.ar  103  HIS103     -0.2212
     31  N        -11.4860   48.4890   73.1930 N.3   144  PHE144     -0.1241
     32  CA       -12.0820   49.3940   74.1730 C.3   144  PHE144      0.1605
     33  C        -11.1580   50.3020   74.9390 C.2   144  PHE144      0.2264
     34  O        -11.5330   50.8210   75.9920 O.2   144  PHE144     -0.2867
     35  CB       -12.9620   48.6080   75.1420 C.3   144  PHE144      0.0534
     36  CG       -14.1590   48.0020   74.4870 C.ar  144  PHE144     -0.0203
     37  CD1      -14.5870   48.4640   73.2400 C.ar  144  PHE144     -0.0042
     38  CD2      -14.8730   46.9890   75.1110 C.ar  144  PHE144     -0.0042
     39  CE1      -15.7160   47.9200   72.6240 C.ar  144  PHE144     -0.0003
     40  CE2      -16.0020   46.4360   74.5120 C.ar  144  PHE144     -0.0003
     41  CZ       -16.4260   46.9040   73.2630 C.ar  144  PHE144     -0.0000
     42  N        -11.2620   42.8460   73.7960 N.3   163  PHE163     -0.1241
     43  CA       -12.2300   43.8850   74.0820 C.3   163  PHE163      0.1605
     44  C        -11.9760   44.4870   75.4610 C.2   163  PHE163      0.2264
     45  O        -10.8320   44.7680   75.7960 O.2   163  PHE163     -0.2867
     46  CB       -13.6630   43.3450   73.8930 C.3   163  PHE163      0.0534
     47  CG       -13.9380   42.9210   72.4780 C.ar  163  PHE163     -0.0203
     48  CD1      -13.5850   41.6420   72.0360 C.ar  163  PHE163     -0.0042
     49  CD2      -14.4190   43.8450   71.5480 C.ar  163  PHE163     -0.0042
     50  CE1      -13.6940   41.2870   70.7100 C.ar  163  PHE163     -0.0003
     51  CE2      -14.5320   43.5150   70.2130 C.ar  163  PHE163     -0.0003
     52  CZ       -14.1650   42.2190   69.7820 C.ar  163  PHE163     -0.0000
     53  N        -20.8800   35.8590   68.4190 N.3   199  ASP199     -0.1225
     54  CA       -20.1960   37.1320   68.6170 C.3   199  ASP199      0.1805
     55  C        -18.6950   37.0400   68.2270 C.2   199  ASP199      0.2598
     56  O        -17.9890   36.1480   68.7070 O.2   199  ASP199     -0.2718
     57  CB       -20.3390   37.5340   70.0810 C.3   199  ASP199      0.1424
     58  CG       -19.7780   38.9130   70.3700 C.2   199  ASP199      0.3668
     59  OD1      -20.3670   39.9100   69.9010 O.co2 199  ASP199     -0.2456
     60  OD2      -18.7490   38.9950   71.0660 O.co2 199  ASP199     -0.2456
     61  N        -18.2260   37.9740   67.3860 N.am  200  THR200     -0.1953
     62  CA       -16.8430   38.0080   66.8950 C.3   200  THR200      0.1897
     63  C        -16.2640   36.5910   66.7400 C.2   200  THR200      0.2313
     64  O        -15.2420   36.2220   67.3430 O.2   200  THR200     -0.2863
     65  CB       -15.9200   38.9100   67.8040 C.3   200  THR200      0.1794
     66  OG1      -14.5980   38.9250   67.2680 O.3   200  THR200     -0.2208
     67  CG2      -15.8590   38.4110   69.2380 C.3   200  THR200      0.0378
     68  N        -20.8090   36.3020   63.3540 N.3   253  GLU253     -0.1245
     69  CA       -20.5010   37.7120   63.2160 C.3   253  GLU253      0.1567
     70  C        -19.0220   37.7240   62.9130 C.2   253  GLU253      0.2260
     71  O        -18.1850   37.5020   63.7980 O.2   253  GLU253     -0.2867
     72  CB       -20.7690   38.4770   64.5100 C.3   253  GLU253      0.0388
     73  CG       -20.4790   39.9690   64.3960 C.3   253  GLU253      0.1160
     74  CD       -20.4820   40.6500   65.7390 C.2   253  GLU253      0.3649
     75  OE1      -19.6070   40.3180   66.5630 O.co2 253  GLU253     -0.2457
     76  OE2      -21.3650   41.5050   65.9710 O.co2 253  GLU253     -0.2457
     77  N        -16.3460   39.7600   62.4010 N.3   255  PHE255     -0.1241
     78  CA       -15.8240   41.0810   62.6960 C.3   255  PHE255      0.1605
     79  C        -14.3230   41.2210   62.4860 C.2   255  PHE255      0.2264
     80  O        -13.5170   40.5420   63.1530 O.2   255  PHE255     -0.2867
     81  CB       -16.1630   41.4280   64.1410 C.3   255  PHE255      0.0534
     82  CG       -15.5620   42.7140   64.6280 C.ar  255  PHE255     -0.0203
     83  CD1      -15.8950   43.9300   64.0330 C.ar  255  PHE255     -0.0042
     84  CD2      -14.7220   42.7240   65.7450 C.ar  255  PHE255     -0.0042
     85  CE1      -15.4050   45.1420   64.5460 C.ar  255  PHE255     -0.0003
     86  CE2      -14.2330   43.9220   66.2630 C.ar  255  PHE255     -0.0003
     87  CZ       -14.5760   45.1320   65.6640 C.ar  255  PHE255     -0.0000
     88  N        -19.5300   43.3890   58.2940 N.3   279  PHE279     -0.1241
     89  CA       -19.5840   44.8090   58.6410 C.3   279  PHE279      0.1605
     90  C        -19.3130   45.6950   57.4430 C.2   279  PHE279      0.2264
     91  O        -19.3970   46.9060   57.5340 O.2   279  PHE279     -0.2867
     92  CB       -18.5390   45.1460   59.7100 C.3   279  PHE279      0.0534
     93  CG       -18.8490   44.5950   61.0710 C.ar  279  PHE279     -0.0203
     94  CD1      -18.9110   43.2230   61.2890 C.ar  279  PHE279     -0.0042
     95  CD2      -19.0520   45.4540   62.1460 C.ar  279  PHE279     -0.0042
     96  CE1      -19.1750   42.7100   62.5690 C.ar  279  PHE279     -0.0003
     97  CE2      -19.3160   44.9590   63.4300 C.ar  279  PHE279     -0.0003
     98  CZ       -19.3800   43.5880   63.6440 C.ar  279  PHE279     -0.0000
     99  N        -20.6080   49.5670   57.9870 N.3   283  ARG283     -0.1245
    100  CA       -19.4590   50.4160   58.2930 C.3   283  ARG283      0.1563
    101  C        -18.8310   50.9160   56.9830 C.2   283  ARG283      0.2260
    102  O        -17.6520   51.3040   56.9620 O.2   283  ARG283     -0.2867
    103  CB       -18.3760   49.6470   59.0830 C.3   283  ARG283      0.0307
    104  CG       -18.7560   49.1270   60.4700 C.3   283  ARG283      0.0489
    105  CD       -18.8270   50.2190   61.5070 C.3   283  ARG283      0.2205
    106  NE       -19.4320   49.7640   62.7670 N.pl3 283  ARG283     -0.0865
    107  CZ       -18.8140   49.0940   63.7410 C.cat 283  ARG283      0.5346
    108  NH1      -17.5310   48.7640   63.6400 N.pl3 283  ARG283      0.1354
    109  NH2      -19.4850   48.7690   64.8410 N.pl3 283  ARG283      0.1354
    110  N        -27.4590   46.8290   67.2110 N.3   325  HIS325     -0.1226
    111  CA       -27.0540   47.3820   68.4980 C.3   325  HIS325      0.1752
    112  C        -25.6730   48.0660   68.5390 C.2   325  HIS325      0.2596
    113  O        -25.3340   48.7500   69.5050 O.2   325  HIS325     -0.2718
    114  CB       -27.1060   46.2670   69.5490 C.3   325  HIS325      0.0759
    115  CG       -26.0970   45.1760   69.3260 C.ar  325  HIS325      0.0818
    116  ND1      -26.2020   44.2570   68.3020 N.ar  325  HIS325     -0.2268
    117  CD2      -24.9380   44.8890   69.9660 C.ar  325  HIS325      0.1154
    118  CE1      -25.1490   43.4550   68.3190 C.ar  325  HIS325      0.1986
    119  NE2      -24.3670   43.8190   69.3190 N.ar  325  HIS325     -0.2212
    120  N        -24.8920   47.8950   67.4810 N.am  326  ASP326     -0.1974
    121  CA       -23.5470   48.4590   67.4200 C.3   326  ASP326      0.1709
    122  C        -23.3860   49.6250   66.4560 C.2   326  ASP326      0.2293
    123  O        -22.2690   50.0470   66.1910 O.2   326  ASP326     -0.2864
    124  CB       -22.5550   47.3870   66.9790 C.3   326  ASP326      0.1436
    125  CG       -22.4900   46.2290   67.9250 C.2   326  ASP326      0.3671
    126  OD1      -22.4070   46.4820   69.1360 O.co2 326  ASP326     -0.2456
    127  OD2      -22.5070   45.0730   67.4450 O.co2 326  ASP326     -0.2456
    128  N        -22.7200   53.5140   69.1400 N.3   413  ARG413     -0.1245
    129  CA       -23.6390   52.4010   69.3000 C.3   413  ARG413      0.1563
    130  C        -24.8150   52.8450   70.1820 C.2   413  ARG413      0.2260
    131  O        -25.9060   52.2790   70.1010 O.2   413  ARG413     -0.2867
    132  CB       -22.9130   51.2200   69.9700 C.3   413  ARG413      0.0307
    133  CG       -21.5170   50.9980   69.4220 C.3   413  ARG413      0.0489
    134  CD       -20.8790   49.7010   69.8990 C.3   413  ARG413      0.2205
    135  NE       -20.5580   49.6590   71.3300 N.pl3 413  ARG413     -0.0865
    136  CZ       -20.1170   48.5600   71.9330 C.cat 413  ARG413      0.5346
    137  NH1      -19.9520   47.4460   71.2210 N.pl3 413  ARG413      0.1354
    138  NH2      -19.8610   48.5570   73.2330 N.pl3 413  ARG413      0.1354
    139  N        -29.4130   52.2910   71.1540 N.3   417  ARG417     -0.1245
    140  CA       -29.7760   51.7330   72.4400 C.3   417  ARG417      0.1563
    141  C        -30.7600   52.5440   73.2600 C.2   417  ARG417      0.2260
    142  O        -31.0970   52.1350   74.3760 O.2   417  ARG417     -0.2867
    143  CB       -28.4960   51.4830   73.2450 C.3   417  ARG417      0.0307
    144  CG       -27.5790   50.5060   72.5450 C.3   417  ARG417      0.0489
    145  CD       -26.2390   50.3160   73.2070 C.3   417  ARG417      0.2205
    146  NE       -25.4460   49.4060   72.3990 N.pl3 417  ARG417     -0.0865
    147  CZ       -24.3480   48.7910   72.8120 C.cat 417  ARG417      0.5346
    148  NH1      -23.9040   48.9930   74.0470 N.pl3 417  ARG417      0.1354
    149  NH2      -23.7030   47.9650   71.9950 N.pl3 417  ARG417      0.1354
@<TRIPOS>BOND
     1   102   101    2
     2   101   100    1
     3    90    91    2
     4    90    89    1
     5    99   100    1
     6   100   103    1
     7    88    89    1
     8    89    92    1
     9   103   104    1
    10    92    93    1
    11   104   105    1
    12    93    94   ar
    13    93    95   ar
    14    94    96   ar
    15   105   106    1
    16    95    97   ar
    17    77    78    1
    18    79    78    1
    19    79    80    2
    20    96    98   ar
    21    78    81    1
    22   106   107    2
    23    70    69    1
    24    70    71    2
    25    69    68    1
    26    69    72    1
    27    97    98   ar
    28   108   107    1
    29   107   109    1
    30    83    85   ar
    31    83    82   ar
    32    81    82    1
    33    73    72    1
    34    73    74    1
    35    85    87   ar
    36    82    84   ar
    37    87    86   ar
    38    74    76   ar
    39    74    75   ar
    40    84    86   ar
    41   123   122    2
    42   122   121    1
    43    63    62    1
    44    63    64    2
    45    62    61    1
    46    62    65    1
    47   124   121    1
    48   124   125    1
    49   110   111    1
    50    66    65    1
    51    61    55   am
    52   121   120    1
    53   127   125   ar
    54   120   112   am
    55    65    67    1
    56   125   126   ar
    57    55    54    1
    58    55    56    2
    59   116   118   ar
    60   116   115   ar
    61   118   119   ar
    62    53    54    1
    63   111   112    1
    64   111   114    1
    65   112   113    2
    66    54    57    1
    67   128   129    1
    68   129   132    1
    69   129   130    1
    70   119   117   ar
    71   115   114    1
    72   115   117   ar
    73   133   134    1
    74   133   132    1
    75    52    51   ar
    76    52    50   ar
    77   134   135    1
    78    59    58   ar
    79    57    58    1
    80   131   130    2
    81    51    49   ar
    82    58    60   ar
    83    50    48   ar
    84    20    19    1
    85   139   140    1
    86   137   136    1
    87   135   136    2
    88    49    47   ar
    89    19    17   ar
    90    19    18   ar
    91    17    15   ar
    92   136   138    1
    93   149   147    1
    94    48    47   ar
    95   146   147    2
    96   146   145    1
    97   140   143    1
    98   140   141    1
    99    47    46    1
   100   144   145    1
   101   144   143    1
   102    39    37   ar
   103    39    41   ar
   104    18    16   ar
   105   147   148    1
   106    15    14   ar
   107    31    32    1
   108    37    36   ar
   109   141   142    2
   110    41    40   ar
   111    29    27   ar
   112    29    30   ar
   113    27    26   ar
   114    16    14   ar
   115    42    43    1
   116    14    13    1
   117    46    43    1
   118    43    44    1
   119    32    33    1
   120    32    35    1
   121    36    38   ar
   122    36    35    1
   123    40    38   ar
   124    21    22    1
   125    30    28   ar
   126    33    34    2
   127     8     6   ar
   128    13    10    1
   129    26    28   ar
   130    26    25    1
   131     7     6   ar
   132    44    45    2
   133     6     5    1
   134    25    22    1
   135    22    23    1
   136    10     9    1
   137    10    11    1
   138    24    23    2
   139     4     3    2
   140    12    11    2
   141     5     2    1
   142     3     2    1
   143     2     1    1
