@<TRIPOS>MOLECULE
tmp/2pwpC00.pdb
 153 149 0 0 0
SMALL
GASTEIGER

@<TRIPOS>ATOM
      1  N         19.0490  155.0430   54.9540 N.3    11  TRP11      -0.1241
      2  CA        19.6790  153.7610   54.6430 C.3    11  TRP11       0.1605
      3  C         18.6480  152.6390   54.6920 C.2    11  TRP11       0.2264
      4  O         18.6540  151.8100   55.5990 O.2    11  TRP11      -0.2867
      5  CB        20.8990  153.4740   55.5470 C.3    11  TRP11       0.0550
      6  CG        20.7080  153.8080   57.0020 C.ar   11  TRP11       0.0003
      7  CD1       20.1680  153.0030   57.9670 C.ar   11  TRP11       0.0946
      8  CD2       21.0840  155.0270   57.6610 C.ar   11  TRP11       0.0152
      9  NE1       20.1730  153.6510   59.1840 N.ar   11  TRP11      -0.2442
     10  CE2       20.7240  154.8970   59.0220 C.ar   11  TRP11       0.0810
     11  CE3       21.6850  156.2170   57.2310 C.ar   11  TRP11       0.0012
     12  CZ2       20.9430  155.9130   59.9580 C.ar   11  TRP11       0.0191
     13  CZ3       21.9000  157.2300   58.1580 C.ar   11  TRP11       0.0001
     14  CH2       21.5330  157.0700   59.5080 C.ar   11  TRP11       0.0015
     15  N         19.0430  158.5720   65.2760 N.3    51  VAL51      -0.1231
     16  CA        20.3200  158.3070   64.6070 C.3    51  VAL51       0.1692
     17  C         21.4750  158.3490   65.5990 C.2    51  VAL51       0.2592
     18  O         21.6000  159.3000   66.3780 O.2    51  VAL51      -0.2718
     19  CB        20.6060  159.3380   63.4750 C.3    51  VAL51       0.0266
     20  CG1       21.9970  159.1190   62.8840 C.3    51  VAL51       0.0020
     21  CG2       19.5480  159.2560   62.3910 C.3    51  VAL51       0.0020
     22  N         22.3260  157.3270   65.5660 N.am   52  ILE52      -0.1966
     23  CA        23.4750  157.2790   66.4600 C.3    52  ILE52       0.1727
     24  C         24.4650  158.3790   66.1240 C.2    52  ILE52       0.2616
     25  O         24.8960  158.4960   64.9760 O.2    52  ILE52      -0.2715
     26  CB        24.1770  155.9220   66.4090 C.3    52  ILE52       0.0290
     27  CG1       23.2350  154.8260   66.9290 C.3    52  ILE52       0.0022
     28  CG2       25.4640  155.9770   67.2070 C.3    52  ILE52       0.0023
     29  CD1       23.6970  153.3810   66.6670 C.3    52  ILE52       0.0001
     30  N         24.8200  159.1790   67.1290 N.am   53  GLN53      -0.1963
     31  CA        25.7400  160.2920   66.9420 C.3    53  GLN53       0.1733
     32  C         27.1350  159.8590   67.3120 C.2    53  GLN53       0.2616
     33  O         28.0960  160.1950   66.6330 O.2    53  GLN53      -0.2715
     34  CB        25.3450  161.4940   67.8050 C.3    53  GLN53       0.0408
     35  CG        24.0060  162.0620   67.4440 C.3    53  GLN53       0.0908
     36  CD        24.0100  162.5830   66.0330 C.2    53  GLN53       0.2608
     37  OE1       24.8380  163.4190   65.6810 O.2    53  GLN53      -0.2717
     38  NE2       23.1110  162.0640   65.2020 N.am   53  GLN53      -0.0878
     39  N         27.2430  159.1210   68.4080 N.am   54  LEU54      -0.1977
     40  CA        28.5320  158.6050   68.8500 C.3    54  LEU54       0.1596
     41  C         28.3400  157.5330   69.9040 C.2    54  LEU54       0.2287
     42  O         27.2280  157.3420   70.4200 O.2    54  LEU54      -0.2864
     43  CB        29.4120  159.7400   69.3800 C.3    54  LEU54       0.0297
     44  CG        28.8560  160.5750   70.5380 C.3    54  LEU54       0.0022
     45  CD1       29.0160  159.8440   71.8650 C.3    54  LEU54       0.0001
     46  CD2       29.5240  161.9490   70.6270 C.3    54  LEU54       0.0001
     47  N         36.4040  158.8680   64.4290 N.3    62  TYR62      -0.1227
     48  CA        35.8180  159.9790   63.7230 C.3    62  TYR62       0.1736
     49  C         36.4100  161.3190   64.1550 C.2    62  TYR62       0.2595
     50  O         36.8600  162.1100   63.3220 O.2    62  TYR62      -0.2718
     51  CB        34.3140  159.9580   63.9640 C.3    62  TYR62       0.0548
     52  CG        33.5780  161.1280   63.3890 C.ar   62  TYR62      -0.0200
     53  CD1       33.2800  161.1770   62.0310 C.ar   62  TYR62      -0.0009
     54  CD2       33.1320  162.1650   64.2090 C.ar   62  TYR62      -0.0009
     55  CE1       32.5800  162.2180   61.4910 C.ar   62  TYR62       0.0417
     56  CE2       32.4280  163.2340   63.6800 C.ar   62  TYR62       0.0417
     57  CZ        32.1530  163.2500   62.3170 C.ar   62  TYR62       0.1957
     58  OH        31.4570  164.2950   61.7690 O.3    62  TYR62      -0.2866
     59  N         36.4280  161.5840   65.4530 N.am   63  HIS63      -0.1975
     60  CA        36.8960  162.8900   65.9230 C.3    63  HIS63       0.1656
     61  C         38.3680  163.1520   65.6150 C.2    63  HIS63       0.2291
     62  O         38.7540  164.2880   65.3430 O.2    63  HIS63      -0.2864
     63  CB        36.5890  163.0870   67.4170 C.3    63  HIS63       0.0771
     64  CG        35.1240  163.1650   67.7020 C.ar   63  HIS63       0.0820
     65  ND1       34.4850  162.3180   68.5820 N.ar   63  HIS63      -0.2267
     66  CD2       34.1620  163.9570   67.1730 C.ar   63  HIS63       0.1154
     67  CE1       33.1940  162.6060   68.6040 C.ar   63  HIS63       0.1986
     68  NE2       32.9720  163.5970   67.7540 N.ar   63  HIS63      -0.2212
     69  N         28.7630  169.8900   65.9200 N.3    85  GLY85      -0.1225
     70  CA        29.7350  169.3480   66.8680 C.3    85  GLY85       0.1811
     71  C         29.5110  169.6170   68.3550 C.2    85  GLY85       0.2280
     72  O         30.4680  169.6660   69.1260 O.2    85  GLY85      -0.2866
     73  N         28.6020  167.8600   70.8490 N.3    87  ASP87      -0.1239
     74  CA        29.1500  166.8980   71.7910 C.3    87  ASP87       0.1674
     75  C         30.5640  167.2690   72.2580 C.2    87  ASP87       0.2266
     76  O         31.0340  166.7530   73.2630 O.2    87  ASP87      -0.2867
     77  CB        29.1590  165.5040   71.1570 C.3    87  ASP87       0.1410
     78  CG        29.8340  165.4950   69.7920 C.2    87  ASP87       0.3668
     79  OD1       31.0820  165.4700   69.7170 O.co2  87  ASP87      -0.2456
     80  OD2       29.1030  165.5190   68.7950 O.co2  87  ASP87      -0.2456
     81  N         31.0650  169.3970   61.4710 N.3   156  ASP156     -0.1225
     82  CA        30.7570  168.1370   62.1560 C.3   156  ASP156      0.1805
     83  C         29.2580  168.0360   62.2850 C.2   156  ASP156      0.2598
     84  O         28.6880  168.2170   63.3660 O.2   156  ASP156     -0.2718
     85  CB        31.4060  168.0980   63.5390 C.3   156  ASP156      0.1424
     86  CG        31.0240  166.8550   64.3510 C.2   156  ASP156      0.3668
     87  OD1       30.5810  165.8420   63.7770 O.co2 156  ASP156     -0.2456
     88  OD2       31.1860  166.9050   65.5780 O.co2 156  ASP156     -0.2456
     89  N         28.6030  167.7720   61.1690 N.am  157  SER157     -0.1938
     90  CA        27.1510  167.7870   61.1750 C.3   157  SER157      0.2055
     91  C         26.5880  166.4010   61.4680 C.2   157  SER157      0.2644
     92  O         27.3050  165.3870   61.4650 O.2   157  SER157     -0.2714
     93  CB        26.6350  168.2750   59.8270 C.3   157  SER157      0.2130
     94  OG        27.1570  167.4530   58.7970 O.3   157  SER157     -0.2179
     95  N         25.2930  166.3740   61.7440 N.am  158  SER158     -0.1935
     96  CA        24.5280  165.1490   61.6700 C.3   158  SER158      0.2055
     97  C         24.0990  165.0100   60.2050 C.2   158  SER158      0.2643
     98  O         24.4870  165.8260   59.3600 O.2   158  SER158     -0.2714
     99  CB        23.3190  165.2250   62.6080 C.3   158  SER158      0.2130
    100  OG        22.6620  166.4760   62.4870 O.3   158  SER158     -0.2179
    101  N         23.2990  163.9930   59.9110 N.am  159  ASP159     -0.1971
    102  CA        22.8330  163.7290   58.5500 C.3   159  ASP159      0.1709
    103  C         21.9200  164.8440   58.0110 C.2   159  ASP159      0.2293
    104  O         21.4480  165.6910   58.7790 O.2   159  ASP159     -0.2864
    105  CB        22.1340  162.3640   58.5010 C.3   159  ASP159      0.1436
    106  CG        23.0660  161.2160   58.8780 C.2   159  ASP159      0.3671
    107  OD1       24.1230  161.0630   58.2230 O.co2 159  ASP159     -0.2456
    108  OD2       22.7420  160.4700   59.8280 O.co2 159  ASP159     -0.2456
    109  N         31.7550  166.3880   57.2890 N.3   189  GLN189     -0.1245
    110  CA        31.2580  165.0410   57.3580 C.3   189  GLN189      0.1566
    111  C         30.4770  164.7590   56.0760 C.2   189  GLN189      0.2260
    112  O         29.6470  165.5440   55.6400 O.2   189  GLN189     -0.2867
    113  CB        30.3860  164.8480   58.6080 C.3   189  GLN189      0.0367
    114  CG        29.8600  163.4190   58.7660 C.3   189  GLN189      0.0905
    115  CD        28.4450  163.2770   58.2920 C.2   189  GLN189      0.2608
    116  OE1       27.5110  163.7920   58.9190 O.2   189  GLN189     -0.2717
    117  NE2       28.2640  162.5680   57.1850 N.am  189  GLN189     -0.0878
    118  N         29.0630  161.3150   53.4250 N.3   191  GLU191     -0.1245
    119  CA        28.3690  160.1170   53.8760 C.3   191  GLU191      0.1567
    120  C         29.1810  158.8170   53.7500 C.2   191  GLU191      0.2260
    121  O         30.4160  158.8410   53.6840 O.2   191  GLU191     -0.2867
    122  CB        26.9710  160.0440   53.2690 C.3   191  GLU191      0.0388
    123  CG        26.0000  161.0980   53.8550 C.3   191  GLU191      0.1160
    124  CD        25.8050  160.9870   55.3810 C.2   191  GLU191      0.3649
    125  OE1       25.5930  162.0370   56.0360 O.co2 191  GLU191     -0.2457
    126  OE2       25.8560  159.8580   55.9290 O.co2 191  GLU191     -0.2457
    127  N         28.5050  153.8040   62.8740 N.3   224  TYR224     -0.1228
    128  CA        27.7930  154.5070   61.8120 C.3   224  TYR224      0.1721
    129  C         27.4030  153.4720   60.7310 C.2   224  TYR224      0.2437
    130  O         28.0670  152.4490   60.5860 O.2   224  TYR224     -0.2733
    131  CB        28.6430  155.6310   61.2020 C.3   224  TYR224      0.0547
    132  CG        28.8720  156.8460   62.0910 C.ar  224  TYR224     -0.0200
    133  CD1       27.9090  157.2660   63.0170 C.ar  224  TYR224     -0.0009
    134  CD2       30.0530  157.5830   62.0000 C.ar  224  TYR224     -0.0009
    135  CE1       28.1310  158.3900   63.8240 C.ar  224  TYR224      0.0417
    136  CE2       30.2760  158.6970   62.7900 C.ar  224  TYR224      0.0417
    137  CZ        29.3150  159.0980   63.6990 C.ar  224  TYR224      0.1957
    138  OH        29.5730  160.2050   64.4780 O.3   224  TYR224     -0.2866
    139  N         26.3070  153.7290   59.9930 N.am  225  PRO225     -0.2729
    140  CA        25.7800  152.7950   58.9870 C.3   225  PRO225      0.1401
    141  C         26.8460  152.3840   57.9650 C.2   225  PRO225      0.2269
    142  O         27.5290  153.2650   57.4240 O.2   225  PRO225     -0.2865
    143  CB        24.6700  153.6090   58.3010 C.3   225  PRO225      0.0296
    144  CG        24.2230  154.5740   59.3380 C.3   225  PRO225      0.0237
    145  CD        25.4790  154.9430   60.1050 C.3   225  PRO225      0.0939
    146  N         32.4160  156.2540   57.4220 N.3   229  ILE229     -0.1245
    147  CA        31.8620  157.5270   57.0120 C.3   229  ILE229      0.1561
    148  C         32.9570  158.3460   56.3280 C.2   229  ILE229      0.2260
    149  O         34.1230  158.1670   56.6350 O.2   229  ILE229     -0.2867
    150  CB        31.2940  158.2730   58.2160 C.3   229  ILE229      0.0252
    151  CG1       30.3270  159.3590   57.7610 C.3   229  ILE229      0.0019
    152  CG2       32.4020  158.8260   59.1090 C.3   229  ILE229      0.0019
    153  CD1       29.2690  159.6490   58.7970 C.3   229  ILE229      0.0001
@<TRIPOS>BOND
     1   122   123    1
     2   122   119    1
     3   118   119    1
     4   121   120    2
     5   120   119    1
     6   123   124    1
     7     2     3    1
     8     2     1    1
     9     2     5    1
    10     3     4    2
    11   124   126   ar
    12   124   125   ar
    13     5     6    1
    14   112   111    2
    15   111   110    1
    16   148   149    2
    17   148   147    1
    18     6     8   ar
    19     6     7   ar
    20   147   146    1
    21   147   150    1
    22   117   115   am
    23    11     8   ar
    24    11    13   ar
    25   109   110    1
    26   110   113    1
    27   142   141    2
    28     8    10   ar
    29   151   150    1
    30   151   153    1
    31   141   140    1
    32     7     9   ar
    33   103   102    1
    34   103   104    2
    35    13    14   ar
    36   150   152    1
    37   107   106   ar
    38   115   114    1
    39   115   116    2
    40   143   140    1
    41   143   144    1
    42   105   102    1
    43   105   106    1
    44   102   101    1
    45   113   114    1
    46    94    93    1
    47   106   108   ar
    48   140   139    1
    49    10     9   ar
    50    10    12   ar
    51   144   145    1
    52    98    97    2
    53    14    12   ar
    54    93    90    1
    55   101    97   am
    56   139   145    1
    57   139   129   am
    58    97    96    1
    59   130   129    2
    60   129   128    1
    61    89    90    1
    62    89    83   am
    63    90    91    1
    64   131   128    1
    65   131   132    1
    66    92    91    2
    67    91    95   am
    68    81    82    1
    69    55    53   ar
    70    55    57   ar
    71    96    95    1
    72    96    99    1
    73    58    57    1
    74   128   127    1
    75   134   132   ar
    76   134   136   ar
    77    53    52   ar
    78   132   133   ar
    79    82    83    1
    80    82    85    1
    81    83    84    2
    82    57    56   ar
    83    21    19    1
    84   100    99    1
    85   136   137   ar
    86    20    19    1
    87   133   135   ar
    88    50    49    2
    89    52    51    1
    90    52    54   ar
    91    19    16    1
    92    85    86    1
    93    56    54   ar
    94   137   135   ar
    95   137   138    1
    96    48    51    1
    97    48    49    1
    98    48    47    1
    99    87    86   ar
   100    49    59   am
   101    86    88   ar
   102    16    15    1
   103    16    17    1
   104    25    24    2
   105    38    36   am
   106    62    61    2
   107    59    60    1
   108    22    17   am
   109    22    23    1
   110    17    18    2
   111    61    60    1
   112    37    36    2
   113    69    70    1
   114    60    63    1
   115    36    35    1
   116    24    23    1
   117    24    30   am
   118    26    23    1
   119    26    27    1
   120    26    28    1
   121    33    32    2
   122    29    27    1
   123    70    71    1
   124    31    30    1
   125    31    32    1
   126    31    34    1
   127    66    64   ar
   128    66    68   ar
   129    32    39   am
   130    63    64    1
   131    35    34    1
   132    64    65   ar
   133    68    67   ar
   134    71    72    2
   135    39    40    1
   136    65    67   ar
   137    80    78   ar
   138    40    43    1
   139    40    41    1
   140    43    44    1
   141    79    78   ar
   142    78    77    1
   143    41    42    2
   144    44    46    1
   145    44    45    1
   146    73    74    1
   147    77    74    1
   148    74    75    1
   149    75    76    2
