@<TRIPOS>MOLECULE
tmp/2pwsA00.pdb
 78 74 0 0 0
SMALL
GASTEIGER

@<TRIPOS>ATOM
      1  N        -16.2450   11.0530   -5.8800 N.3     2  LEU2       -0.1245
      2  CA       -16.6060    9.7030   -5.6920 C.3     2  LEU2        0.1561
      3  C        -15.6290    8.9330   -4.8330 C.2     2  LEU2        0.2260
      4  O        -16.0110    8.1570   -3.9640 O.2     2  LEU2       -0.2867
      5  CB       -16.7950    9.0580   -7.0320 C.3     2  LEU2        0.0270
      6  CG       -18.0980    8.2840   -7.1380 C.3     2  LEU2        0.0019
      7  CD1      -19.1630    9.0930   -7.8690 C.3     2  LEU2        0.0001
      8  CD2      -17.8600    6.9680   -7.8600 C.3     2  LEU2        0.0001
      9  N        -18.7900    0.5100   -1.8520 N.3    17  ALA17      -0.1231
     10  CA       -19.8080    1.3210   -2.4900 C.3    17  ALA17       0.1694
     11  C        -20.3180    0.6720   -3.7410 C.2    17  ALA17       0.2591
     12  O        -21.5270    0.5820   -3.9450 O.2    17  ALA17      -0.2718
     13  CB       -19.2510    2.7090   -2.7890 C.3    17  ALA17       0.0304
     14  N        -19.4080    0.2090   -4.5880 N.am   18  ILE18      -0.1980
     15  CA       -19.8010   -0.5980   -5.7230 C.3    18  ILE18       0.1595
     16  C        -19.4520   -2.0110   -5.2470 C.2    18  ILE18       0.2287
     17  O        -18.3040   -2.2860   -4.8860 O.2    18  ILE18      -0.2864
     18  CB       -18.9520   -0.2690   -6.9630 C.3    18  ILE18       0.0276
     19  CG1      -19.1670    1.1660   -7.3770 C.3    18  ILE18       0.0022
     20  CG2      -19.3170   -1.2080   -8.1730 C.3    18  ILE18       0.0022
     21  CD1      -18.3210    1.4940   -8.5720 C.3    18  ILE18       0.0001
     22  N        -24.5190    1.0720   -5.3210 N.3    22  SER22      -0.1217
     23  CA       -24.5140    1.7200   -6.6360 C.3    22  SER22       0.1889
     24  C        -25.6560    1.2610   -7.5350 C.2    22  SER22       0.2288
     25  O        -25.8840    1.8410   -8.6070 O.2    22  SER22      -0.2866
     26  CB       -23.1550    1.5270   -7.3070 C.3    22  SER22       0.2089
     27  OG       -22.8780    0.1450   -7.5010 O.3    22  SER22      -0.2183
     28  N        -27.3230    5.4510   -6.0550 N.3    29  GLY29      -0.1210
     29  CA       -26.5750    5.4030   -7.2150 C.3    29  GLY29       0.1956
     30  C        -27.2310    6.1360   -8.3750 C.2    29  GLY29       0.2612
     31  O        -27.0320    7.3360   -8.5590 O.2    29  GLY29      -0.2717
     32  N        -27.9870    5.4320   -9.1960 N.am   30  TRP30      -0.1962
     33  CA       -28.5440    5.9570  -10.4880 C.3    30  TRP30       0.1771
     34  C        -29.9770    6.4370  -10.4740 C.2    30  TRP30       0.2620
     35  O        -30.7750    6.0290  -11.3320 O.2    30  TRP30      -0.2715
     36  CB       -28.5230    4.8400  -11.5040 C.3    30  TRP30       0.0590
     37  CG       -28.1280    5.3520  -12.8040 C.ar   30  TRP30       0.0006
     38  CD1      -26.9770    6.0270  -13.0710 C.ar   30  TRP30       0.0946
     39  CD2      -28.8380    5.2650  -14.0540 C.ar   30  TRP30       0.0152
     40  NE1      -26.9140    6.3610  -14.4020 N.ar   30  TRP30      -0.2442
     41  CE2      -28.0440    5.9070  -15.0300 C.ar   30  TRP30       0.0810
     42  CE3      -30.0600    4.7100  -14.4470 C.ar   30  TRP30       0.0012
     43  CZ2      -28.4270    6.0050  -16.3690 C.ar   30  TRP30       0.0191
     44  CZ3      -30.4390    4.8080  -15.7850 C.ar   30  TRP30       0.0001
     45  CH2      -29.6220    5.4520  -16.7260 C.ar   30  TRP30       0.0015
     46  N        -30.3200    7.2800   -9.5120 N.am   31  GLY31      -0.1954
     47  CA       -31.7130    7.6340   -9.3380 C.3    31  GLY31       0.1869
     48  C        -32.2780    8.7350  -10.2180 C.2    31  GLY31       0.2309
     49  O        -31.5860    9.4940  -10.8780 O.2    31  GLY31      -0.2863
     50  N        -29.1630   12.5150   -3.0250 N.3    48  ASP48      -0.1239
     51  CA       -29.3990   13.1330   -4.3130 C.3    48  ASP48       0.1674
     52  C        -29.9160   14.5840   -4.1720 C.2    48  ASP48       0.2266
     53  O        -29.4790   15.4740   -4.9130 O.2    48  ASP48      -0.2867
     54  CB       -30.4170   12.3190   -5.0950 C.3    48  ASP48       0.1410
     55  CG       -29.8260   11.0300   -5.6720 C.2    48  ASP48       0.3668
     56  OD1      -28.6310   10.7230   -5.4040 O.co2  48  ASP48      -0.2456
     57  OD2      -30.5090   10.2540   -6.3760 O.co2  48  ASP48      -0.2456
     58  N        -27.1130   16.9630   -3.2170 N.3    51  TYR51      -0.1241
     59  CA       -26.3030   17.3460   -4.3690 C.3    51  TYR51       0.1605
     60  C        -27.1020   18.3630   -5.1800 C.2    51  TYR51       0.2264
     61  O        -26.5640   19.3430   -5.6880 O.2    51  TYR51      -0.2867
     62  CB       -26.0060   16.1180   -5.2670 C.3    51  TYR51       0.0534
     63  CG       -24.8110   15.2870   -4.8380 C.ar   51  TYR51      -0.0201
     64  CD1      -24.1380   15.5750   -3.6550 C.ar   51  TYR51      -0.0009
     65  CD2      -24.3470   14.2230   -5.6250 C.ar   51  TYR51      -0.0009
     66  CE1      -23.0440   14.8550   -3.2660 C.ar   51  TYR51       0.0417
     67  CE2      -23.2470   13.4720   -5.2270 C.ar   51  TYR51       0.0417
     68  CZ       -22.6010   13.8010   -4.0400 C.ar   51  TYR51       0.1957
     69  OH       -21.4920   13.1070   -3.6060 O.3    51  TYR51      -0.2866
     70  N        -19.1080   14.7670   -8.1270 N.3    60  LYS60      -0.1245
     71  CA       -18.5250   13.4880   -8.5520 C.3    60  LYS60       0.1561
     72  C        -17.0240   13.5620   -8.7740 C.2    60  LYS60       0.2260
     73  O        -16.3340   12.5570   -8.6160 O.2    60  LYS60      -0.2867
     74  CB       -19.1940   13.0170   -9.8420 C.3    60  LYS60       0.0271
     75  CG       -20.4790   12.2470   -9.6150 C.3    60  LYS60       0.0035
     76  CD       -21.6850   13.0230  -10.1300 C.3    60  LYS60       0.0206
     77  CE       -22.3130   12.3740  -11.3560 C.3    60  LYS60       0.1093
     78  NZ       -23.7300   11.9770  -11.1220 N.3    60  LYS60      -0.1314
@<TRIPOS>BOND
     1    45    43   ar
     2    45    44   ar
     3    43    41   ar
     4    44    42   ar
     5    41    40   ar
     6    41    39   ar
     7    42    39   ar
     8    40    38   ar
     9    39    37   ar
    10    38    37   ar
    11    37    36    1
    12    36    33    1
    13    77    78    1
    14    77    76    1
    15    35    34    2
    16    49    48    2
    17    33    34    1
    18    33    32    1
    19    34    46   am
    20    48    47    1
    21    76    75    1
    22    74    75    1
    23    74    71    1
    24    46    47    1
    25    32    30   am
    26    72    73    2
    27    72    71    1
    28    25    24    2
    29    21    19    1
    30    31    30    2
    31    71    70    1
    32    30    29    1
    33    20    18    1
    34     7     6    1
    35     8     6    1
    36    24    23    1
    37    27    26    1
    38    19    18    1
    39    26    23    1
    40    29    28    1
    41     6     5    1
    42     5     2    1
    43    18    15    1
    44    23    22    1
    45    57    55   ar
    46     1     2    1
    47    15    16    1
    48    15    14    1
    49     2     3    1
    50    61    60    2
    51    55    56   ar
    52    55    54    1
    53    65    67   ar
    54    65    63   ar
    55    62    63    1
    56    62    59    1
    57    16    17    2
    58    67    68   ar
    59    60    59    1
    60    54    51    1
    61    53    52    2
    62    63    64   ar
    63     3     4    2
    64    14    11   am
    65    59    58    1
    66    51    52    1
    67    51    50    1
    68    68    69    1
    69    68    66   ar
    70    12    11    2
    71    11    10    1
    72    64    66   ar
    73    13    10    1
    74    10     9    1
