@<TRIPOS>MOLECULE
tmp/2pwuA00.pdb
 83 77 0 0 0
SMALL
GASTEIGER

@<TRIPOS>ATOM
      1  N          9.2870   12.3320   22.3040 N.3    92  ASP92      -0.1225
      2  CA        10.1880   13.3230   22.8960 C.3    92  ASP92       0.1805
      3  C          9.3560   14.0230   23.9700 C.2    92  ASP92       0.2598
      4  O          8.1290   13.9310   23.9550 O.2    92  ASP92      -0.2718
      5  CB        10.7690   14.2930   21.8890 C.3    92  ASP92       0.1424
      6  CG        11.9790   15.0360   22.4180 C.2    92  ASP92       0.3668
      7  OD1       12.2690   14.9270   23.6380 O.co2  92  ASP92      -0.2456
      8  OD2       12.6440   15.7250   21.6060 O.co2  92  ASP92      -0.2456
      9  N         10.0070   14.6760   24.8920 N.am   93  SER93      -0.1952
     10  CA         9.4550   15.2460   26.1110 C.3    93  SER93       0.1924
     11  C          8.8110   16.6090   25.9050 C.2    93  SER93       0.2314
     12  O          8.0530   17.0730   26.7640 O.2    93  SER93      -0.2863
     13  CB        10.5610   15.3420   27.1690 C.3    93  SER93       0.2116
     14  OG        11.6510   16.1630   26.7640 O.3    93  SER93      -0.2180
     15  N         12.8510   20.5330   23.8100 N.3    96  TYR96      -0.1241
     16  CA        13.4220   21.1680   22.6330 C.3    96  TYR96       0.1605
     17  C         12.3950   21.9720   21.8470 C.2    96  TYR96       0.2264
     18  O         12.6220   23.1130   21.4340 O.2    96  TYR96      -0.2867
     19  CB        14.0840   20.1160   21.7370 C.3    96  TYR96       0.0534
     20  CG        15.3030   19.4100   22.3550 C.ar   96  TYR96      -0.0201
     21  CD1       16.3170   20.1230   22.9820 C.ar   96  TYR96      -0.0009
     22  CD2       15.3570   18.0330   22.2790 C.ar   96  TYR96      -0.0009
     23  CE1       17.3910   19.4420   23.5400 C.ar   96  TYR96       0.0417
     24  CE2       16.4160   17.3390   22.8280 C.ar   96  TYR96       0.0417
     25  CZ        17.4360   18.0300   23.4580 C.ar   96  TYR96       0.1957
     26  OH        18.5210   17.3130   23.9320 O.3    96  TYR96      -0.2866
     27  N         13.7600   18.0700   29.7200 N.3   136  ASP136     -0.1239
     28  CA        15.0380   18.7570   29.7420 C.3   136  ASP136      0.1674
     29  C         14.9300   20.1680   29.1570 C.2   136  ASP136      0.2266
     30  O         13.8320   20.5260   28.7360 O.2   136  ASP136     -0.2867
     31  CB        16.0970   17.9430   28.9950 C.3   136  ASP136      0.1410
     32  CG        15.9270   17.8940   27.4990 C.2   136  ASP136      0.3668
     33  OD1       14.7870   17.9270   26.9930 O.co2 136  ASP136     -0.2456
     34  OD2       16.9570   17.8040   26.7920 O.co2 136  ASP136     -0.2456
     35  N         18.6200   12.3490   29.3590 N.3   176  ILE176     -0.1245
     36  CA        19.2500   13.1280   28.2970 C.3   176  ILE176      0.1561
     37  C         20.4390   13.9210   28.8460 C.2   176  ILE176      0.2260
     38  O         20.3040   14.7050   29.7860 O.2   176  ILE176     -0.2867
     39  CB        18.2880   14.1070   27.6130 C.3   176  ILE176      0.0252
     40  CG1       17.1010   13.4540   26.9110 C.3   176  ILE176      0.0019
     41  CG2       19.0420   14.9960   26.6240 C.3   176  ILE176      0.0019
     42  CD1       15.9280   14.4040   26.7030 C.3   176  ILE176      0.0001
     43  N         21.8270   14.8800   24.1510 N.3   204  GLY204     -0.1210
     44  CA        21.0980   16.0520   23.7140 C.3   204  GLY204      0.1956
     45  C         22.0520   17.2080   23.4510 C.2   204  GLY204      0.2612
     46  O         23.2320   17.1380   23.8190 O.2   204  GLY204     -0.2717
     47  N         21.5540   18.2620   22.8230 N.am  205  GLY205     -0.1942
     48  CA        22.2970   19.4800   22.5830 C.3   205  GLY205      0.2014
     49  C         23.2450   19.4020   21.4200 C.2   205  GLY205      0.2639
     50  O         24.1210   20.2460   21.2140 O.2   205  GLY205     -0.2714
     51  N         23.1440   18.3780   20.5630 N.am  206  LEU206     -0.1963
     52  CA        24.0900   18.4160   19.4390 C.3   206  LEU206      0.1728
     53  C         23.3550   18.5440   18.1200 C.2   206  LEU206      0.2616
     54  O         23.9610   18.5150   17.0510 O.2   206  LEU206     -0.2715
     55  CB        25.0080   17.1920   19.4450 C.3   206  LEU206      0.0311
     56  CG        26.0650   17.1470   20.5550 C.3   206  LEU206      0.0022
     57  CD1       26.6470   15.7560   20.6900 C.3   206  LEU206      0.0001
     58  CD2       27.1740   18.1560   20.2920 C.3   206  LEU206      0.0001
     59  N         22.0340   18.6910   18.1330 N.am  207  ALA207     -0.1977
     60  CA        21.3400   18.9350   16.8620 C.3   207  ALA207      0.1597
     61  C         21.1060   20.4380   16.7660 C.2   207  ALA207      0.2287
     62  O         19.9850   20.9150   16.9080 O.2   207  ALA207     -0.2864
     63  CB        20.0510   18.1420   16.7920 C.3   207  ALA207      0.0319
     64  N         19.9290   12.4680   19.5540 N.3   235  MET235     -0.1230
     65  CA        18.6680   13.1100   19.1910 C.3   235  MET235      0.1702
     66  C         18.8050   14.0310   17.9950 C.2   235  MET235      0.2592
     67  O         19.7170   14.8680   17.9870 O.2   235  MET235     -0.2718
     68  CB        18.1820   13.9150   20.4150 C.3   235  MET235      0.0401
     69  CG        18.0710   13.0260   21.6490 C.3   235  MET235      0.0596
     70  SD        17.2130   13.7330   23.0670 S.3   235  MET235     -0.1393
     71  CE        15.5190   13.3410   22.6330 C.3   235  MET235      0.0692
     72  N         17.9380   13.8910   17.0070 N.am  236  GLY236     -0.1957
     73  CA        17.8390   14.8220   15.9040 C.3   236  GLY236      0.1869
     74  C         18.8930   14.7340   14.8370 C.2   236  GLY236      0.2309
     75  O         19.0370   15.6390   14.0040 O.2   236  GLY236     -0.2863
     76  N         17.0910    9.7260   15.3790 N.3   255  ASP255     -0.1239
     77  CA        15.8740   10.2010   14.7290 C.3   255  ASP255      0.1674
     78  C         16.1940   11.4670   13.9390 C.2   255  ASP255      0.2266
     79  O         17.0800   12.2250   14.3460 O.2   255  ASP255     -0.2867
     80  CB        14.7490   10.5160   15.7090 C.3   255  ASP255      0.1410
     81  CG        15.0420   11.8180   16.4540 C.2   255  ASP255      0.3668
     82  OD1       15.9040   11.7690   17.3520 O.co2 255  ASP255     -0.2456
     83  OD2       14.4310   12.8510   16.1180 O.co2 255  ASP255     -0.2456
@<TRIPOS>BOND
     1    78    79    2
     2    78    77    1
     3    75    74    2
     4    77    76    1
     5    77    80    1
     6    74    73    1
     7    80    81    1
     8    73    72    1
     9    83    81   ar
    10    81    82   ar
    11    61    60    1
    12    61    62    2
    13    63    60    1
    14    60    59    1
    15    72    66   am
    16    54    53    2
    17    67    66    2
    18    66    65    1
    19    53    59   am
    20    53    52    1
    21    65    64    1
    22    65    68    1
    23    52    55    1
    24    52    51    1
    25    55    56    1
    26    58    56    1
    27    68    69    1
    28    56    57    1
    29    51    49   am
    30    50    49    2
    31    49    48    1
    32    18    17    2
    33     8     6   ar
    34    69    70    1
    35    19    20    1
    36    19    16    1
    37    17    16    1
    38     5     6    1
    39     5     2    1
    40    22    20   ar
    41    22    24   ar
    42     1     2    1
    43    20    21   ar
    44     6     7   ar
    45    48    47    1
    46    16    15    1
    47    71    70    1
    48    47    45   am
    49    24    25   ar
    50     2     3    1
    51    21    23   ar
    52    45    44    1
    53    45    46    2
    54    25    23   ar
    55    25    26    1
    56    44    43    1
    57     4     3    2
    58     3     9   am
    59     9    10    1
    60    11    10    1
    61    11    12    2
    62    10    13    1
    63    41    39    1
    64    42    40    1
    65    14    13    1
    66    34    32   ar
    67    40    39    1
    68    33    32   ar
    69    32    31    1
    70    39    36    1
    71    36    37    1
    72    36    35    1
    73    30    29    2
    74    37    38    2
    75    31    28    1
    76    29    28    1
    77    27    28    1
