@<TRIPOS>MOLECULE
tmp/2pwyA00.pdb
 203 199 0 0 0
SMALL
GASTEIGER

@<TRIPOS>ATOM
      1  N         11.8640   47.5360  -16.8500 N.3    70  ALA70      -0.1231
      2  CA        12.0000   46.2870  -17.5930 C.3    70  ALA70       0.1694
      3  C         10.6270   45.7750  -18.0450 C.2    70  ALA70       0.2593
      4  O          9.6770   45.7620  -17.2690 O.2    70  ALA70      -0.2718
      5  CB        12.7050   45.2460  -16.7350 C.3    70  ALA70       0.0304
      6  N         10.5150   45.3760  -19.3090 N.am   71  THR71      -0.1939
      7  CA         9.2610   44.8050  -19.7970 C.3    71  THR71       0.2016
      8  C          8.9320   43.4880  -19.0550 C.2    71  THR71       0.2522
      9  O          9.7720   42.5760  -18.9850 O.2    71  THR71      -0.2726
     10  CB         9.2770   44.6050  -21.3310 C.3    71  THR71       0.1807
     11  OG1        9.5570   45.8610  -21.9750 O.3    71  THR71      -0.2208
     12  CG2        7.9390   44.0760  -21.8250 C.3    71  THR71       0.0379
     13  N          7.7160   43.3950  -18.4810 N.am   72  PRO72      -0.2490
     14  CA         7.4050   42.1700  -17.7470 C.3    72  PRO72       0.1619
     15  C          7.1750   40.9900  -18.6750 C.2    72  PRO72       0.2605
     16  O          6.8540   41.1710  -19.8530 O.2    72  PRO72      -0.2715
     17  CB         6.1050   42.4920  -16.9980 C.3    72  PRO72       0.0570
     18  CG         5.6250   43.7990  -17.5130 C.2    72  PRO72      -0.0077
     19  CD         6.6090   44.3730  -18.4720 C.2    72  PRO72       0.0634
     20  N          7.3440   39.7900  -18.1280 N.am   73  THR73      -0.1951
     21  CA         6.9400   38.5560  -18.7920 C.3    73  THR73       0.1897
     22  C          5.4750   38.6780  -19.2160 C.2    73  THR73       0.2313
     23  O          4.6410   39.1510  -18.4390 O.2    73  THR73      -0.2863
     24  CB         7.0830   37.3760  -17.8160 C.3    73  THR73       0.1794
     25  OG1        8.4090   37.3760  -17.2610 O.3    73  THR73      -0.2208
     26  CG2        6.8050   36.0420  -18.5010 C.3    73  THR73       0.0378
     27  N         13.9520   33.1250   -8.2980 N.3    95  GLU95      -0.1231
     28  CA        13.6930   33.9370   -9.4810 C.3    95  GLU95       0.1699
     29  C         14.7870   34.9540   -9.7490 C.2    95  GLU95       0.2592
     30  O         15.2590   35.6180   -8.8290 O.2    95  GLU95      -0.2718
     31  CB        12.3620   34.7080   -9.3460 C.3    95  GLU95       0.0402
     32  CG        12.0780   35.5980  -10.5640 C.3    95  GLU95       0.1161
     33  CD        10.9110   36.5790  -10.3900 C.2    95  GLU95       0.3649
     34  OE1       10.6830   37.0970   -9.2710 O.co2  95  GLU95      -0.2457
     35  OE2       10.2170   36.8350  -11.4040 O.co2  95  GLU95      -0.2457
     36  N         15.1670   35.0900  -11.0160 N.am   96  ALA96      -0.1966
     37  CA        15.9370   36.2630  -11.4640 C.3    96  ALA96       0.1728
     38  C         15.6670   36.5060  -12.9570 C.2    96  ALA96       0.2617
     39  O         15.4680   35.5430  -13.6960 O.2    96  ALA96      -0.2715
     40  CB        17.4390   36.0530  -11.2130 C.3    96  ALA96       0.0334
     41  N         15.6130   37.7700  -13.4060 N.am   97  GLY97      -0.1940
     42  CA        15.6490   38.9550  -12.5340 C.3    97  GLY97       0.2014
     43  C         14.2450   39.4320  -12.1850 C.2    97  GLY97       0.2640
     44  O         13.3150   39.2440  -12.9750 O.2    97  GLY97      -0.2714
     45  N         14.0750   40.0350  -11.0050 N.am   98  THR98      -0.1936
     46  CA        12.7520   40.5350  -10.5930 C.3    98  THR98       0.2028
     47  C         12.1150   41.4020  -11.6850 C.2    98  THR98       0.2643
     48  O         10.9130   41.2920  -11.9560 O.2    98  THR98      -0.2714
     49  CB        12.8140   41.3030   -9.2460 C.3    98  THR98       0.1808
     50  OG1       13.6760   40.6020   -8.3400 O.3    98  THR98      -0.2208
     51  CG2       11.4270   41.4200   -8.6200 C.3    98  THR98       0.0379
     52  N         12.9290   42.2530  -12.3140 N.am   99  GLY99      -0.1939
     53  CA        12.4800   43.0830  -13.4270 C.3    99  GLY99       0.2014
     54  C         11.4780   44.1220  -12.9730 C.2    99  GLY99       0.2640
     55  O         11.8440   45.0520  -12.2560 O.2    99  GLY99      -0.2714
     56  N         10.2180   43.9610  -13.4020 N.am  100  SER100     -0.1935
     57  CA         9.1180   44.8420  -12.9780 C.3   100  SER100      0.2055
     58  C          8.0930   44.1190  -12.1020 C.2   100  SER100      0.2644
     59  O          7.0500   44.6720  -11.7760 O.2   100  SER100     -0.2714
     60  CB         8.4460   45.4870  -14.1940 C.3   100  SER100      0.2130
     61  OG         9.3560   46.4060  -14.7820 O.3   100  SER100     -0.2179
     62  N          8.4080   42.8760  -11.7310 N.am  101  GLY101     -0.1939
     63  CA         7.5720   42.1060  -10.8090 C.3   101  GLY101      0.2014
     64  C          6.3910   41.3660  -11.4150 C.2   101  GLY101      0.2639
     65  O          5.5640   40.8200  -10.6830 O.2   101  GLY101     -0.2714
     66  N          6.3150   41.3120  -12.7420 N.am  102  GLY102     -0.1939
     67  CA         5.1880   40.6350  -13.3920 C.3   102  GLY102      0.2014
     68  C          5.2090   39.1440  -13.1190 C.2   102  GLY102      0.2638
     69  O          4.2530   38.5930  -12.5720 O.2   102  GLY102     -0.2714
     70  N          6.3020   38.4870  -13.5000 N.am  103  LEU103     -0.1977
     71  CA         6.4490   37.0530  -13.2150 C.3   103  LEU103      0.1596
     72  C          6.4290   36.8070  -11.6960 C.2   103  LEU103      0.2287
     73  O          5.8460   35.8300  -11.2270 O.2   103  LEU103     -0.2864
     74  CB         7.7240   36.5020  -13.8690 C.3   103  LEU103      0.0297
     75  CG         7.9620   34.9970  -13.6830 C.3   103  LEU103      0.0022
     76  CD1        6.7480   34.1840  -14.1110 C.3   103  LEU103      0.0001
     77  CD2        9.2660   34.5280  -14.3780 C.3   103  LEU103      0.0001
     78  N         15.7780   37.8200   -7.1700 N.3   120  TYR120     -0.1227
     79  CA        17.0170   38.6190   -7.2740 C.3   120  TYR120      0.1736
     80  C         16.9450   39.5970   -8.4170 C.2   120  TYR120      0.2595
     81  O         16.4900   39.2520   -9.5050 O.2   120  TYR120     -0.2718
     82  CB        18.2500   37.7120   -7.4700 C.3   120  TYR120      0.0548
     83  CG        18.6070   37.0110   -6.1930 C.ar  120  TYR120     -0.0200
     84  CD1       19.6640   37.4550   -5.4090 C.ar  120  TYR120     -0.0009
     85  CD2       17.8450   35.9340   -5.7350 C.ar  120  TYR120     -0.0009
     86  CE1       19.9760   36.8210   -4.2030 C.ar  120  TYR120      0.0417
     87  CE2       18.1460   35.3070   -4.5360 C.ar  120  TYR120      0.0417
     88  CZ        19.2020   35.7610   -3.7770 C.ar  120  TYR120      0.1957
     89  OH        19.4890   35.1380   -2.5830 O.3   120  TYR120     -0.2866
     90  N         17.4160   40.8180   -8.1760 N.am  121  GLU121     -0.1965
     91  CA        17.4730   41.8320   -9.2240 C.3   121  GLU121      0.1733
     92  C         18.7370   42.6740   -9.0660 C.2   121  GLU121      0.2616
     93  O         18.9610   43.2420   -8.0030 O.2   121  GLU121     -0.2715
     94  CB        16.2160   42.7200   -9.1620 C.3   121  GLU121      0.0429
     95  CG        16.2380   43.9600  -10.0540 C.3   121  GLU121      0.1163
     96  CD        16.4980   43.6520  -11.5130 C.2   121  GLU121      0.3649
     97  OE1       15.6880   42.9170  -12.1390 O.co2 121  GLU121     -0.2457
     98  OE2       17.5070   44.1630  -12.0460 O.co2 121  GLU121     -0.2457
     99  N         19.5350   42.7520  -10.1350 N.am  122  ALA122     -0.1963
    100  CA        20.8350   43.4540  -10.1230 C.3   122  ALA122      0.1728
    101  C         20.7210   44.9740  -10.1510 C.2   122  ALA122      0.2616
    102  O         21.6020   45.6790   -9.6400 O.2   122  ALA122     -0.2715
    103  CB        21.6990   42.9800  -11.2940 C.3   122  ALA122      0.0334
    104  N         19.6530   45.4790  -10.7580 N.am  123  ARG123     -0.1977
    105  CA        19.5190   46.9200  -10.9870 C.3   123  ARG123      0.1597
    106  C         18.5700   47.5760   -9.9790 C.2   123  ARG123      0.2287
    107  O         17.3850   47.2430   -9.9420 O.2   123  ARG123     -0.2864
    108  CB        19.0680   47.1880  -12.4240 C.3   123  ARG123      0.0334
    109  CG        20.0730   46.7230  -13.4720 C.3   123  ARG123      0.0492
    110  CD        19.5780   46.9530  -14.8900 C.3   123  ARG123      0.2205
    111  NE        19.4840   48.3780  -15.2110 N.pl3 123  ARG123     -0.0865
    112  CZ        19.2630   48.8650  -16.4300 C.cat 123  ARG123      0.5346
    113  NH1       19.1220   48.0450  -17.4670 N.pl3 123  ARG123      0.1354
    114  NH2       19.1910   50.1790  -16.6100 N.pl3 123  ARG123      0.1354
    115  N         15.2290   49.1830  -11.1950 N.3   126  HIS126     -0.1241
    116  CA        14.3400   48.0990  -11.5940 C.3   126  HIS126      0.1621
    117  C         13.6960   47.4690  -10.3600 C.2   126  HIS126      0.2264
    118  O         12.4760   47.3010  -10.3070 O.2   126  HIS126     -0.2867
    119  CB        15.0840   47.0460  -12.4320 C.3   126  HIS126      0.0745
    120  CG        15.4130   47.4900  -13.8310 C.ar  126  HIS126      0.0817
    121  ND1       15.7570   46.6010  -14.8270 N.ar  126  HIS126     -0.2268
    122  CD2       15.4470   48.7200  -14.3990 C.ar  126  HIS126      0.1154
    123  CE1       15.9900   47.2610  -15.9470 C.ar  126  HIS126      0.1986
    124  NE2       15.7990   48.5490  -15.7180 N.ar  126  HIS126     -0.2212
    125  N         21.0270   42.4890   -6.1380 N.3   148  GLY148     -0.1210
    126  CA        22.2950   41.8530   -6.4820 C.3   148  GLY148      0.1956
    127  C         22.1730   40.8520   -7.6060 C.2   148  GLY148      0.2612
    128  O         21.0700   40.5070   -8.0350 O.2   148  GLY148     -0.2717
    129  N         23.3230   40.3870   -8.0820 N.am  149  LYS149     -0.1965
    130  CA        23.3660   39.3660   -9.1230 C.3   149  LYS149      0.1728
    131  C         23.1000   37.9970   -8.5150 C.2   149  LYS149      0.2616
    132  O         23.6200   37.6700   -7.4410 O.2   149  LYS149     -0.2715
    133  CB        24.7230   39.3790   -9.8320 C.3   149  LYS149      0.0311
    134  CG        24.9780   40.6440  -10.6400 C.3   149  LYS149      0.0038
    135  CD        26.4650   40.8110  -10.9510 C.3   149  LYS149      0.0206
    136  CE        26.7440   42.1040  -11.7350 C.3   149  LYS149      0.1093
    137  NZ        26.1900   43.3450  -11.0680 N.3   149  LYS149     -0.1314
    138  N         22.2810   37.2050   -9.1990 N.am  150  LEU150     -0.1963
    139  CA        22.0040   35.8550   -8.7480 C.3   150  LEU150      0.1728
    140  C         23.3070   35.0450   -8.6150 C.2   150  LEU150      0.2616
    141  O         23.4340   34.2620   -7.6850 O.2   150  LEU150     -0.2715
    142  CB        20.9950   35.1550   -9.6700 C.3   150  LEU150      0.0311
    143  CG        20.5750   33.7240   -9.2870 C.3   150  LEU150      0.0022
    144  CD1       20.0290   33.6680   -7.8530 C.3   150  LEU150      0.0001
    145  CD2       19.5800   33.1180  -10.2820 C.3   150  LEU150      0.0001
    146  N         24.2690   35.2710   -9.5230 N.am  151  GLU151     -0.1977
    147  CA        25.5860   34.5930   -9.4980 C.3   151  GLU151      0.1602
    148  C         26.2750   34.6670   -8.1400 C.2   151  GLU151      0.2287
    149  O         27.1240   33.8260   -7.8240 O.2   151  GLU151     -0.2864
    150  CB        26.5810   35.2430  -10.4760 C.3   151  GLU151      0.0415
    151  CG        26.2870   35.1310  -11.9070 C.3   151  GLU151      0.1163
    152  CD        25.4860   36.2990  -12.4200 C.2   151  GLU151      0.3649
    153  OE1       24.4540   36.6340  -11.8080 O.co2 151  GLU151     -0.2457
    154  OE2       25.8930   36.8610  -13.4560 O.co2 151  GLU151     -0.2457
    155  N         14.1730   34.9390  -16.1140 N.3   166  ASP166     -0.1225
    156  CA        13.8720   35.8670  -17.1900 C.3   166  ASP166      0.1805
    157  C         14.9920   36.8960  -17.1550 C.2   166  ASP166      0.2598
    158  O         14.9520   37.8440  -16.3750 O.2   166  ASP166     -0.2718
    159  CB        12.4930   36.5220  -17.0050 C.3   166  ASP166      0.1424
    160  CG        12.1640   37.5340  -18.1020 C.2   166  ASP166      0.3668
    161  OD1       13.0050   37.7670  -19.0130 O.co2 166  ASP166     -0.2456
    162  OD2       11.0470   38.1090  -18.0440 O.co2 166  ASP166     -0.2456
    163  N         16.0050   36.6590  -17.9880 N.am  167  LEU167     -0.1966
    164  CA        17.1870   37.5180  -18.0830 C.3   167  LEU167      0.1728
    165  C         17.9590   37.1680  -19.3610 C.2   167  LEU167      0.2616
    166  O         17.7710   36.0890  -19.9340 O.2   167  LEU167     -0.2715
    167  CB        18.0660   37.4200  -16.8150 C.3   167  LEU167      0.0311
    168  CG        18.1680   36.1060  -16.0050 C.3   167  LEU167      0.0022
    169  CD1       18.8050   35.0240  -16.8500 C.3   167  LEU167      0.0001
    170  CD2       18.9620   36.2780  -14.6940 C.3   167  LEU167      0.0001
    171  N         18.8160   38.0870  -19.7980 N.am  168  MET168     -0.1963
    172  CA        19.4540   37.9990  -21.1160 C.3   168  MET168      0.1736
    173  C         20.4710   36.8680  -21.2310 C.2   168  MET168      0.2616
    174  O         20.6400   36.2970  -22.3100 O.2   168  MET168     -0.2715
    175  CB        20.1500   39.3210  -21.4620 C.3   168  MET168      0.0427
    176  CG        19.1650   40.4890  -21.6300 C.3   168  MET168      0.0599
    177  SD        18.0350   40.2690  -23.0450 S.3   168  MET168     -0.1393
    178  CE        18.9370   41.2430  -24.2080 C.3   168  MET168      0.0692
    179  N         21.1590   36.5650  -20.1270 N.am  169  GLU169     -0.1977
    180  CA        22.2730   35.6130  -20.1560 C.3   169  GLU169      0.1602
    181  C         22.1390   34.5590  -19.0590 C.2   169  GLU169      0.2287
    182  O         22.9400   34.5370  -18.1050 O.2   169  GLU169     -0.2864
    183  CB        23.6030   36.3530  -20.0350 C.3   169  GLU169      0.0415
    184  CG        23.8150   37.3690  -21.1530 C.3   169  GLU169      0.1163
    185  CD        25.0650   38.1880  -20.9770 C.2   169  GLU169      0.3649
    186  OE1       25.2520   38.7840  -19.8940 O.co2 169  GLU169     -0.2457
    187  OE2       25.8520   38.2430  -21.9410 O.co2 169  GLU169     -0.2457
    188  N         24.9570   32.3300  -17.3700 N.3   172  LYS172     -0.1231
    189  CA        25.7820   32.8540  -16.2760 C.3   172  LYS172      0.1693
    190  C         25.3300   32.4570  -14.8700 C.2   172  LYS172      0.2591
    191  O         26.1160   32.5350  -13.9250 O.2   172  LYS172     -0.2718
    192  CB        25.8920   34.3740  -16.3650 C.3   172  LYS172      0.0285
    193  CG        26.6630   34.8690  -17.5730 C.3   172  LYS172      0.0035
    194  CD        26.9340   36.3660  -17.4450 C.3   172  LYS172      0.0206
    195  CE        27.5150   36.9590  -18.7120 C.3   172  LYS172      0.1093
    196  NZ        28.5450   36.1070  -19.3460 N.3   172  LYS172     -0.1314
    197  N         24.0680   32.0430  -14.7290 N.am  173  VAL173     -0.1980
    198  CA        23.4940   31.7110  -13.4140 C.3   173  VAL173      0.1595
    199  C         23.2170   30.2100  -13.2380 C.2   173  VAL173      0.2287
    200  O         22.6200   29.7890  -12.2350 O.2   173  VAL173     -0.2864
    201  CB        22.2090   32.5640  -13.0860 C.3   173  VAL173      0.0276
    202  CG1       22.5040   34.0440  -13.1900 C.3   173  VAL173      0.0022
    203  CG2       21.0160   32.1880  -13.9860 C.3   173  VAL173      0.0022
@<TRIPOS>BOND
     1   178   177    1
     2   177   176    1
     3   174   173    2
     4    11    10    1
     5   187   185   ar
     6    12    10    1
     7   176   175    1
     8   175   172    1
     9    10     7    1
    10   173   172    1
    11   173   179   am
    12   184   185    1
    13   184   183    1
    14   172   171    1
    15   185   186   ar
    16   180   179    1
    17   180   183    1
    18   180   181    1
    19   166   165    2
    20    16    15    2
    21   171   165   am
    22     7     6    1
    23     7     8    1
    24   165   164    1
    25   196   195    1
    26     6     3   am
    27    22    21    1
    28    22    23    2
    29   181   182    2
    30     8     9    2
    31     8    13   am
    32   161   160   ar
    33    21    20    1
    34    21    24    1
    35   195   194    1
    36    15    20   am
    37    15    14    1
    38    26    24    1
    39    13    19    1
    40    13    14    1
    41    19    18    2
    42   160   162   ar
    43   160   159    1
    44   164   163    1
    45   164   167    1
    46     3     2    1
    47     3     4    2
    48   163   157   am
    49    24    25    1
    50    14    17    1
    51     2     1    1
    52     2     5    1
    53   193   194    1
    54   193   192    1
    55    18    17    1
    56   113   112    1
    57   188   189    1
    58   156   157    1
    59   156   159    1
    60   156   155    1
    61   157   158    2
    62   169   168    1
    63   167   168    1
    64   114   112    1
    65   112   111    2
    66   192   189    1
    67   189   190    1
    68   168   170    1
    69   123   124   ar
    70   123   121   ar
    71   124   122   ar
    72   111   110    1
    73   110   109    1
    74   190   197   am
    75   190   191    2
    76   121   120   ar
    77    61    60    1
    78   197   198    1
    79   122   120   ar
    80    77    75    1
    81    60    57    1
    82    76    75    1
    83   203   201    1
    84    74    75    1
    85    74    71    1
    86   120   119    1
    87    39    38    2
    88    70    71    1
    89    70    68   am
    90   109   108    1
    91   154   152   ar
    92    53    54    1
    93    53    52    1
    94   198   199    1
    95   198   201    1
    96    41    38   am
    97    41    42    1
    98    56    57    1
    99    56    54   am
   100    67    68    1
   101    67    66    1
   102   199   200    2
   103    71    72    1
   104   202   201    1
   105    68    69    2
   106    57    58    1
   107    44    43    2
   108    54    55    2
   109    38    37    1
   110    66    64   am
   111    42    43    1
   112   119   116    1
   113   108   105    1
   114   152   151    1
   115   152   153   ar
   116    52    47   am
   117    43    45   am
   118    97    96   ar
   119    58    59    2
   120    58    62   am
   121    98    96   ar
   122    48    47    2
   123   151   150    1
   124   136   137    1
   125   136   135    1
   126    62    63    1
   127    72    73    2
   128    47    46    1
   129   116   115    1
   130   116   117    1
   131    96    95    1
   132    37    40    1
   133    37    36    1
   134    64    63    1
   135    64    65    2
   136    35    33   ar
   137   103   100    1
   138    36    29   am
   139    45    46    1
   140   105   104    1
   141   105   106    1
   142   135   134    1
   143   104   101   am
   144   134   133    1
   145    46    49    1
   146    32    33    1
   147    32    31    1
   148   150   147    1
   149    33    34   ar
   150   117   118    2
   151   145   143    1
   152   101   100    1
   153   101   102    2
   154    99   100    1
   155    99    92   am
   156    95    94    1
   157   106   107    2
   158   133   130    1
   159    29    28    1
   160    29    30    2
   161   142   143    1
   162   142   139    1
   163   146   147    1
   164   146   140   am
   165    81    80    2
   166   147   148    1
   167    28    31    1
   168    28    27    1
   169   143   144    1
   170    49    51    1
   171    49    50    1
   172    91    94    1
   173    91    92    1
   174    91    90    1
   175   138   139    1
   176   138   131   am
   177   130   131    1
   178   130   129    1
   179    92    93    2
   180   139   140    1
   181   140   141    2
   182   131   132    2
   183    80    90   am
   184    80    79    1
   185   148   149    2
   186   129   127   am
   187   128   127    2
   188   127   126    1
   189    82    79    1
   190    82    83    1
   191    79    78    1
   192   126   125    1
   193    83    85   ar
   194    83    84   ar
   195    85    87   ar
   196    84    86   ar
   197    87    88   ar
   198    86    88   ar
   199    88    89    1
