@<TRIPOS>MOLECULE
tmp/2px0F01.pdb
 159 149 0 0 0
SMALL
GASTEIGER

@<TRIPOS>ATOM
      1  N         61.4040    4.8960   88.3370 N.3    76  THR76      -0.1203
      2  CA        60.0420    5.4000   88.2930 C.3    76  THR76       0.1994
      3  C         59.3280    4.9540   87.0300 C.2    76  THR76       0.2618
      4  O         59.9480    4.8130   85.9800 O.2    76  THR76      -0.2717
      5  CB        60.0340    6.9240   88.3590 C.3    76  THR76       0.1784
      6  OG1       60.8430    7.4560   87.2990 O.3    76  THR76      -0.2211
      7  CG2       60.5980    7.3790   89.6840 C.3    76  THR76       0.0376
      8  N         58.0230    4.7300   87.1440 N.am   77  GLY77      -0.1942
      9  CA        57.2320    4.3010   86.0100 C.3    77  GLY77       0.2014
     10  C         57.7000    2.9930   85.4090 C.2    77  GLY77       0.2639
     11  O         57.1270    2.5090   84.4380 O.2    77  GLY77      -0.2714
     12  N         58.7370    2.4090   85.9940 N.am   78  ALA78      -0.1963
     13  CA        59.2980    1.1650   85.4790 C.3    78  ALA78       0.1728
     14  C         58.2640    0.0470   85.3820 C.2    78  ALA78       0.2617
     15  O         58.1160   -0.5890   84.3330 O.2    78  ALA78      -0.2715
     16  CB        60.4840    0.7270   86.3460 C.3    78  ALA78       0.0334
     17  N         57.5510   -0.1870   86.4770 N.am   79  GLY79      -0.1940
     18  CA        56.5400   -1.2280   86.4860 C.3    79  GLY79       0.2014
     19  C         56.4650   -1.9730   87.8040 C.2    79  GLY79       0.2639
     20  O         55.8990   -3.0570   87.8800 O.2    79  GLY79      -0.2714
     21  N         57.0460   -1.3960   88.8470 N.am   80  LYS80      -0.1963
     22  CA        57.0300   -2.0220   90.1560 C.3    80  LYS80       0.1728
     23  C         55.6700   -2.6170   90.5140 C.2    80  LYS80       0.2617
     24  O         55.4670   -3.8260   90.4260 O.2    80  LYS80      -0.2715
     25  CB        57.4300   -1.0100   91.2320 C.3    80  LYS80       0.0311
     26  CG        58.9130   -0.7280   91.3010 C.3    80  LYS80       0.0038
     27  CD        59.2510    0.1930   92.4670 C.3    80  LYS80       0.0206
     28  CE        59.2450    1.6510   92.0440 C.3    80  LYS80       0.1093
     29  NZ        58.0340    1.9630   91.2550 N.3    80  LYS80      -0.1314
     30  N         54.7450   -1.7560   90.9150 N.am   81  THR81      -0.1937
     31  CA        53.4080   -2.1730   91.3270 C.3    81  THR81       0.2028
     32  C         52.7630   -3.3220   90.5580 C.2    81  THR81       0.2643
     33  O         52.5810   -4.4210   91.0950 O.2    81  THR81      -0.2714
     34  CB        52.4460   -0.9910   91.2810 C.3    81  THR81       0.1808
     35  OG1       52.9510    0.0550   92.1160 O.3    81  THR81      -0.2208
     36  CG2       51.0670   -1.4130   91.7720 C.3    81  THR81       0.0379
     37  N         52.3920   -3.0400   89.3110 N.am   82  THR82      -0.1936
     38  CA        51.7520   -4.0090   88.4290 C.3    82  THR82       0.2028
     39  C         52.4240   -5.3780   88.5100 C.2    82  THR82       0.2642
     40  O         51.7580   -6.4150   88.4570 O.2    82  THR82      -0.2714
     41  CB        51.7950   -3.5190   86.9810 C.3    82  THR82       0.1808
     42  OG1       51.1900   -2.2280   86.9070 O.3    82  THR82      -0.2208
     43  CG2       51.0520   -4.4690   86.0700 C.3    82  THR82       0.0379
     44  N         53.7450   -5.3730   88.6350 N.am   83  THR83      -0.1950
     45  CA        54.5020   -6.6050   88.7310 C.3    83  THR83       0.1897
     46  C         54.1880   -7.3150   90.0360 C.2    83  THR83       0.2313
     47  O         53.9530   -8.5210   90.0360 O.2    83  THR83      -0.2863
     48  CB        56.0130   -6.3380   88.6510 C.3    83  THR83       0.1794
     49  OG1       56.3310   -5.8320   87.3490 O.3    83  THR83      -0.2208
     50  CG2       56.8030   -7.6210   88.9220 C.3    83  THR83       0.0378
     51  N         51.0290   -9.2600   89.5640 N.3    86  LYS86      -0.1245
     52  CA        51.2920  -10.5210   88.9010 C.3    86  LYS86       0.1561
     53  C         51.9640  -11.5180   89.8440 C.2    86  LYS86       0.2260
     54  O         51.4700  -12.6210   90.0500 O.2    86  LYS86      -0.2867
     55  CB        52.1760  -10.2810   87.6830 C.3    86  LYS86       0.0271
     56  CG        51.5640   -9.3830   86.6430 C.3    86  LYS86       0.0035
     57  CD        52.5830   -9.0610   85.5730 C.3    86  LYS86       0.0206
     58  CE        52.0410   -8.0210   84.5990 C.3    86  LYS86       0.1093
     59  NZ        53.0900   -7.5050   83.6720 N.3    86  LYS86      -0.1314
     60  N         54.9150    3.1540   99.6270 N.3   105  ASP105     -0.1239
     61  CA        54.7760    4.2450   98.6780 C.3   105  ASP105      0.1674
     62  C         53.8480    5.2840   99.2900 C.2   105  ASP105      0.2266
     63  O         52.6410    5.2880   99.0470 O.2   105  ASP105     -0.2867
     64  CB        54.1960    3.7510   97.3500 C.3   105  ASP105      0.1410
     65  CG        54.1350    4.8500   96.3020 C.2   105  ASP105      0.3668
     66  OD1       53.5400    5.9110   96.5850 O.co2 105  ASP105     -0.2456
     67  OD2       54.6820    4.6590   95.1940 O.co2 105  ASP105     -0.2456
     68  N         53.9090    9.3400   96.7080 N.3   108  ARG108     -0.1245
     69  CA        53.0290    9.4270   95.5330 C.3   108  ARG108      0.1563
     70  C         51.5400    9.5050   95.8400 C.2   108  ARG108      0.2260
     71  O         50.9500    8.5610   96.3700 O.2   108  ARG108     -0.2867
     72  CB        53.2930    8.2410   94.6000 C.3   108  ARG108      0.0307
     73  CG        53.0840    8.5240   93.1140 C.3   108  ARG108      0.0489
     74  CD        51.6190    8.5600   92.7300 C.3   108  ARG108      0.2205
     75  NE        51.3960    7.8910   91.4470 N.pl3 108  ARG108     -0.0865
     76  CZ        51.6800    6.6110   91.2120 C.cat 108  ARG108      0.5346
     77  NH1       52.1970    5.8540   92.1670 N.pl3 108  ARG108      0.1354
     78  NH2       51.4580    6.0840   90.0200 N.pl3 108  ARG108      0.1354
     79  N         45.3540    2.4540   95.2120 N.3   114  GLN114     -0.1245
     80  CA        45.3210    1.4770   94.1310 C.3   114  GLN114      0.1566
     81  C         45.5690    0.0800   94.6580 C.2   114  GLN114      0.2260
     82  O         44.6350   -0.7040   94.8040 O.2   114  GLN114     -0.2867
     83  CB        46.3730    1.8060   93.0780 C.3   114  GLN114      0.0367
     84  CG        46.0390    3.0190   92.2330 C.3   114  GLN114      0.0905
     85  CD        47.0430    3.2370   91.1170 C.2   114  GLN114      0.2608
     86  OE1       48.2190    3.5110   91.3710 O.2   114  GLN114     -0.2717
     87  NE2       46.5850    3.1140   89.8720 N.am  114  GLN114     -0.0878
     88  N         57.1280   -0.4060   97.1160 N.3   152  THR152     -0.1218
     89  CA        57.7860    0.8160   97.5680 C.3   152  THR152      0.1862
     90  C         57.6010    1.9950   96.6110 C.2   152  THR152      0.2287
     91  O         57.0340    1.8560   95.5230 O.2   152  THR152     -0.2866
     92  CB        59.2960    0.6050   97.7700 C.3   152  THR152      0.1770
     93  OG1       59.9160    0.3290   96.5100 O.3   152  THR152     -0.2211
     94  CG2       59.5490   -0.5450   98.7200 C.3   152  THR152      0.0375
     95  N         58.5800    5.3430   94.1380 N.3   154  GLY154     -0.1225
     96  CA        59.3740    5.5250   92.9450 C.3   154  GLY154      0.1811
     97  C         60.1980    6.7790   93.0880 C.2   154  GLY154      0.2280
     98  O         59.6890    7.8900   92.9410 O.2   154  GLY154     -0.2866
     99  N         61.4760   -4.9380   82.9270 N.3   209  THR209     -0.1203
    100  CA        60.1280   -4.8930   82.4180 C.3   209  THR209      0.1994
    101  C         60.0380   -4.2170   81.0660 C.2   209  THR209      0.2617
    102  O         60.9430   -3.4830   80.6770 O.2   209  THR209     -0.2717
    103  CB        59.2080   -4.1660   83.4100 C.3   209  THR209      0.1784
    104  OG1       59.0890   -2.7880   83.0420 O.3   209  THR209     -0.2211
    105  CG2       59.7860   -4.2440   84.8210 C.3   209  THR209      0.0376
    106  N         58.9500   -4.4870   80.3490 N.am  210  LYS210     -0.1979
    107  CA        58.7000   -3.8970   79.0420 C.3   210  LYS210      0.1596
    108  C         59.5520   -4.4090   77.8790 C.2   210  LYS210      0.2287
    109  O         59.9640   -3.6300   77.0220 O.2   210  LYS210     -0.2864
    110  CB        58.8380   -2.3740   79.1340 C.3   210  LYS210      0.0298
    111  CG        58.0060   -1.7490   80.2310 C.3   210  LYS210      0.0038
    112  CD        57.9840   -0.2320   80.1180 C.3   210  LYS210      0.0206
    113  CE        57.1600    0.3990   81.2400 C.3   210  LYS210      0.1093
    114  NZ        57.0790    1.8740   81.0790 N.3   210  LYS210     -0.1314
    115  N         58.4710   -6.1060   75.6170 N.3   212  ASP212     -0.1225
    116  CA        57.5440   -6.0640   74.5030 C.3   212  ASP212      0.1805
    117  C         57.4820   -4.6540   73.9730 C.2   212  ASP212      0.2597
    118  O         56.8490   -4.3890   72.9480 O.2   212  ASP212     -0.2718
    119  CB        56.1480   -6.4530   74.9690 C.3   212  ASP212      0.1424
    120  CG        55.5380   -5.4270   75.9210 C.2   212  ASP212      0.3668
    121  OD1       55.8350   -5.4860   77.1350 O.co2 212  ASP212     -0.2456
    122  OD2       54.7640   -4.5600   75.4520 O.co2 212  ASP212     -0.2456
    123  N         58.1510   -3.7520   74.6770 N.am  213  GLU213     -0.1979
    124  CA        58.1190   -2.3510   74.3150 C.3   213  GLU213      0.1602
    125  C         59.4290   -1.7760   73.7750 C.2   213  GLU213      0.2287
    126  O         59.4340   -0.6710   73.2270 O.2   213  GLU213     -0.2864
    127  CB        57.6430   -1.5550   75.5370 C.3   213  GLU213      0.0415
    128  CG        57.1870   -0.1310   75.2640 C.3   213  GLU213      0.1163
    129  CD        56.5040    0.4850   76.4750 C.2   213  GLU213      0.3649
    130  OE1       55.6370   -0.1960   77.0660 O.co2 213  GLU213     -0.2457
    131  OE2       56.8240    1.6410   76.8280 O.co2 213  GLU213     -0.2457
    132  N         58.8500   -8.9760   82.4590 N.3   235  THR235     -0.1203
    133  CA        57.4610   -8.7140   82.0970 C.3   235  THR235      0.1994
    134  C         57.3700   -8.3720   80.6090 C.2   235  THR235      0.2618
    135  O         58.3340   -7.8800   80.0200 O.2   235  THR235     -0.2717
    136  CB        56.8600   -7.5900   82.9630 C.3   235  THR235      0.1784
    137  OG1       57.5700   -6.3760   82.7330 O.3   235  THR235     -0.2211
    138  CG2       56.9740   -7.9350   84.4320 C.3   235  THR235      0.0376
    139  N         56.2110   -8.6360   80.0060 N.am  236  ASN236     -0.1960
    140  CA        56.0180   -8.4300   78.5680 C.3   236  ASN236      0.1819
    141  C         54.6890   -7.8120   78.1700 C.2   236  ASN236      0.2622
    142  O         54.3960   -7.6920   76.9890 O.2   236  ASN236     -0.2715
    143  CB        56.1780   -9.7810   77.8570 C.3   236  ASN236      0.1195
    144  CG        55.4320  -10.9130   78.5730 C.2   236  ASN236      0.2630
    145  OD1       55.8320  -12.0790   78.5120 O.2   236  ASN236     -0.2716
    146  ND2       54.3450  -10.5670   79.2560 N.am  236  ASN236     -0.0877
    147  N         53.8810   -7.4290   79.1500 N.am  237  GLY237     -0.1940
    148  CA        52.5930   -6.8340   78.8420 C.3   237  GLY237      0.2014
    149  C         51.8890   -6.2660   80.0610 C.2   237  GLY237      0.2638
    150  O         52.3500   -6.4400   81.1980 O.2   237  GLY237     -0.2714
    151  N         50.7650   -5.5930   79.8210 N.am  238  GLN238     -0.1977
    152  CA        49.9850   -4.9740   80.8850 C.3   238  GLN238      0.1601
    153  C         49.0280   -5.9660   81.5340 C.2   238  GLN238      0.2287
    154  O         48.5630   -5.7440   82.6570 O.2   238  GLN238     -0.2864
    155  CB        49.1980   -3.7860   80.3310 C.3   238  GLN238      0.0394
    156  CG        49.8770   -3.1180   79.1720 C.3   238  GLN238      0.0908
    157  CD        49.5310   -1.6500   79.0450 C.2   238  GLN238      0.2608
    158  OE1       49.8420   -0.8560   79.9320 O.2   238  GLN238     -0.2717
    159  NE2       48.9010   -1.2770   77.9280 N.am  238  GLN238     -0.0878
@<TRIPOS>BOND
     1   118   117    2
     2   126   125    2
     3   125   124    1
     4   117   116    1
     5   117   123   am
     6   124   123    1
     7   124   127    1
     8   116   119    1
     9   116   115    1
    10   119   120    1
    11   128   127    1
    12   128   129    1
    13   122   120   ar
    14   120   121   ar
    15   129   131   ar
    16   129   130   ar
    17   142   141    2
    18   109   108    2
    19   143   140    1
    20   143   144    1
    21   108   107    1
    22   159   157   am
    23   141   140    1
    24   141   147   am
    25   145   144    2
    26   140   139    1
    27   144   146   am
    28   148   147    1
    29   148   149    1
    30   107   110    1
    31   107   106    1
    32   157   156    1
    33   157   158    2
    34   110   111    1
    35   156   155    1
    36   151   149   am
    37   151   152    1
    38   139   134   am
    39   135   134    2
    40   149   150    2
    41   112   111    1
    42   112   113    1
    43   155   152    1
    44   106   101   am
    45   134   133    1
    46   102   101    2
    47   152   153    1
    48   101   100    1
    49   114   113    1
    50   153   154    2
    51   133   132    1
    52   133   136    1
    53   100    99    1
    54   100   103    1
    55   137   136    1
    56   136   138    1
    57   104   103    1
    58   103   105    1
    59    59    58    1
    60    15    14    2
    61    11    10    2
    62    58    57    1
    63    14    13    1
    64    14    17   am
    65    10    12   am
    66    10     9    1
    67    13    12    1
    68    13    16    1
    69    57    56    1
    70     4     3    2
    71     9     8    1
    72    43    41    1
    73    17    18    1
    74    18    19    1
    75    56    55    1
    76    42    41    1
    77    41    38    1
    78     3     8   am
    79     3     2    1
    80     6     5    1
    81    49    48    1
    82    55    52    1
    83    19    20    2
    84    19    21   am
    85     2     1    1
    86     2     5    1
    87     5     7    1
    88    38    39    1
    89    38    37    1
    90    40    39    2
    91    39    44   am
    92    44    45    1
    93    48    45    1
    94    48    50    1
    95    45    46    1
    96    21    22    1
    97    52    51    1
    98    52    53    1
    99    37    32   am
   100    53    54    2
   101    87    85   am
   102    78    76    1
   103    46    47    2
   104    22    23    1
   105    22    25    1
   106    24    23    2
   107    23    30   am
   108    32    33    2
   109    32    31    1
   110    30    31    1
   111    85    86    2
   112    85    84    1
   113    76    75    2
   114    76    77    1
   115    25    26    1
   116    29    28    1
   117    34    31    1
   118    34    36    1
   119    34    35    1
   120    26    27    1
   121    75    74    1
   122    28    27    1
   123    84    83    1
   124    74    73    1
   125    98    97    2
   126    96    97    1
   127    96    95    1
   128    83    80    1
   129    73    72    1
   130    80    81    1
   131    80    79    1
   132    72    69    1
   133    81    82    2
   134    67    65   ar
   135    91    90    2
   136    69    70    1
   137    69    68    1
   138    70    71    2
   139    65    66   ar
   140    65    64    1
   141    93    92    1
   142    90    89    1
   143    88    89    1
   144    64    61    1
   145    89    92    1
   146    92    94    1
   147    61    62    1
   148    61    60    1
   149    63    62    2
