@<TRIPOS>MOLECULE
tmp/2px1A03.pdb
 80 79 0 0 0
SMALL
GASTEIGER

@<TRIPOS>ATOM
      1  N        -12.1950   15.8860   10.8010 N.3    89  THR89      -0.1203
      2  CA       -12.5740   14.4950   10.5740 C.3    89  THR89       0.1994
      3  C        -13.9860   14.5240   10.0010 C.2    89  THR89       0.2618
      4  O        -14.8270   15.3080   10.4340 O.2    89  THR89      -0.2717
      5  CB       -12.5990   13.6950   11.8770 C.3    89  THR89       0.1784
      6  OG1      -13.5160   14.3090   12.7930 O.3    89  THR89      -0.2211
      7  CG2      -11.2080   13.6470   12.4880 C.3    89  THR89       0.0376
      8  N        -14.2520   13.6700    9.0250 N.am   90  GLU90      -0.1965
      9  CA       -15.5650   13.6430    8.4080 C.3    90  GLU90       0.1733
     10  C        -16.5200   12.5980    8.9790 C.2    90  GLU90       0.2616
     11  O        -17.7250   12.6760    8.7370 O.2    90  GLU90      -0.2715
     12  CB       -15.4070   13.4620    6.9000 C.3    90  GLU90       0.0429
     13  CG       -15.0220   14.7480    6.1610 C.3    90  GLU90       0.1163
     14  CD       -14.1880   14.5170    4.9050 C.2    90  GLU90       0.3649
     15  OE1      -14.3020   13.4340    4.2900 O.co2  90  GLU90      -0.2457
     16  OE2      -13.4250   15.4330    4.5290 O.co2  90  GLU90      -0.2457
     17  N        -15.9970   11.6480    9.7530 N.am   91  GLY91      -0.1955
     18  CA       -16.8380   10.6060   10.3200 C.3    91  GLY91       0.1869
     19  C        -16.8960    9.4270    9.3590 C.2    91  GLY91       0.2309
     20  O        -16.4160    9.5190    8.2250 O.2    91  GLY91      -0.2863
     21  N        -23.7110    8.3400   10.9360 N.3   250  VAL250     -0.1231
     22  CA       -22.3080    8.6200   10.6540 C.3   250  VAL250      0.1692
     23  C        -21.7080    8.6100   12.0770 C.2   250  VAL250      0.2592
     24  O        -22.2640    9.1320   13.0620 O.2   250  VAL250     -0.2718
     25  CB       -21.9760    9.9740    9.8270 C.3   250  VAL250      0.0266
     26  CG1      -23.1660   10.8890    9.7240 C.3   250  VAL250      0.0020
     27  CG2      -20.7570   10.6690   10.4440 C.3   250  VAL250      0.0020
     28  N        -20.5820    7.9190   12.1810 N.am  251  ALA251     -0.1966
     29  CA       -19.8920    7.7250   13.4470 C.3   251  ALA251      0.1713
     30  C        -18.7010    8.6230   13.6230 C.2   251  ALA251      0.2458
     31  O        -18.0330    8.9830   12.6580 O.2   251  ALA251     -0.2730
     32  CB       -19.4670    6.2630   13.5810 C.3   251  ALA251      0.0333
     33  N        -18.4240    9.0090   14.8670 N.am  252  PRO252     -0.2716
     34  CA       -17.2590    9.8630   15.0760 C.3   252  PRO252      0.1536
     35  C        -16.0520    8.9640   14.8580 C.2   252  PRO252      0.2598
     36  O        -16.0510    7.8030   15.2670 O.2   252  PRO252     -0.2715
     37  CB       -17.4080   10.3120   16.5280 C.3   252  PRO252      0.0310
     38  CG       -18.1970    9.1830   17.1560 C.3   252  PRO252      0.0237
     39  CD       -19.2030    8.8130   16.1030 C.3   252  PRO252      0.0939
     40  N        -15.0190    9.4690   14.2050 N.am  253  ASN253     -0.1973
     41  CA       -13.8510    8.6370   13.9670 C.3   253  ASN253      0.1688
     42  C        -13.2360    8.0590   15.2220 C.2   253  ASN253      0.2292
     43  O        -13.3550    8.6150   16.3220 O.2   253  ASN253     -0.2864
     44  CB       -12.7640    9.4160   13.2550 C.3   253  ASN253      0.1181
     45  CG       -13.1490    9.8150   11.8490 C.2   253  ASN253      0.2629
     46  OD1      -14.1580    9.3640   11.3260 O.2   253  ASN253     -0.2716
     47  ND2      -12.3320   10.6590   11.2220 N.am  253  ASN253     -0.0877
     48  N        -18.3010   16.3110   23.4430 N.3   318  GLU318     -0.1231
     49  CA       -18.3080   17.1840   22.2720 C.3   318  GLU318      0.1699
     50  C        -17.7150   16.4340   21.0820 C.2   318  GLU318      0.2592
     51  O        -18.1610   16.6250   19.9480 O.2   318  GLU318     -0.2718
     52  CB       -17.4690   18.4420   22.4990 C.3   318  GLU318      0.0402
     53  CG       -18.0760   19.4520   23.4280 C.3   318  GLU318      0.1161
     54  CD       -17.1280   20.5820   23.7280 C.2   318  GLU318      0.3649
     55  OE1      -15.9720   20.2960   24.1000 O.co2 318  GLU318     -0.2457
     56  OE2      -17.5380   21.7560   23.5990 O.co2 318  GLU318     -0.2457
     57  N        -16.7020   15.5980   21.3250 N.am  319  TYR319     -0.1962
     58  CA       -16.0760   14.8430   20.2380 C.3   319  TYR319      0.1771
     59  C        -17.0390   13.7950   19.6760 C.2   319  TYR319      0.2619
     60  O        -17.1080   13.5990   18.4680 O.2   319  TYR319     -0.2715
     61  CB       -14.8000   14.1460   20.7000 C.3   319  TYR319      0.0574
     62  CG       -14.1850   13.3380   19.5990 C.ar  319  TYR319     -0.0198
     63  CD1      -13.3960   13.9430   18.6200 C.ar  319  TYR319     -0.0009
     64  CD2      -14.5170   11.9980   19.4490 C.ar  319  TYR319     -0.0009
     65  CE1      -12.9120   13.2160   17.5590 C.ar  319  TYR319      0.0417
     66  CE2      -14.0400   11.2630   18.3900 C.ar  319  TYR319      0.0417
     67  CZ       -13.2650   11.8840   17.4350 C.ar  319  TYR319      0.1957
     68  OH       -12.7810   11.1550   16.3850 O.3   319  TYR319     -0.2866
     69  N        -17.7820   13.1270   20.5530 N.am  320  LEU320     -0.1963
     70  CA       -18.7560   12.1170   20.1280 C.3   320  LEU320      0.1728
     71  C        -20.0140   12.8030   19.5470 C.2   320  LEU320      0.2616
     72  O        -20.7250   12.2190   18.7270 O.2   320  LEU320     -0.2715
     73  CB       -19.1490   11.2220   21.3130 C.3   320  LEU320      0.0311
     74  CG       -18.0210   10.3660   21.8970 C.3   320  LEU320      0.0022
     75  CD1      -18.5760    9.5450   23.0560 C.3   320  LEU320      0.0001
     76  CD2      -17.4330    9.4500   20.8140 C.3   320  LEU320      0.0001
     77  N        -20.2900   14.0410   19.9550 N.am  321  GLY321     -0.1955
     78  CA       -21.4680   14.7210   19.4450 C.3   321  GLY321      0.1869
     79  C        -22.6750   14.3470   20.2840 C.2   321  GLY321      0.2309
     80  O        -22.8080   13.1800   20.6760 O.2   321  GLY321     -0.2863
@<TRIPOS>BOND
     1    15    14   ar
     2    16    14   ar
     3    14    13    1
     4    13    12    1
     5    12     9    1
     6    20    19    2
     7     9    10    1
     8     9     8    1
     9    11    10    2
    10    10    17   am
    11     8     3   am
    12    19    18    1
    13    26    25    1
    14    17    18    1
    15    25    27    1
    16    25    22    1
    17     3     4    2
    18     3     2    1
    19     2     1    1
    20     2     5    1
    21    22    21    1
    22    22    23    1
    23    47    45   am
    24    46    45    2
    25    45    44    1
    26     5     7    1
    27     5     6    1
    28    23    28   am
    29    23    24    2
    30    28    29    1
    31    31    30    2
    32    44    41    1
    33    29    32    1
    34    29    30    1
    35    30    33   am
    36    41    40    1
    37    41    42    1
    38    40    35   am
    39    35    34    1
    40    35    36    2
    41    33    34    1
    42    33    39    1
    43    34    37    1
    44    42    43    2
    45    39    38    1
    46    68    67    1
    47    37    38    1
    48    67    65   ar
    49    67    66   ar
    50    65    63   ar
    51    66    64   ar
    52    60    59    2
    53    63    62   ar
    54    72    71    2
    55    78    77    1
    56    78    79    1
    57    64    62   ar
    58    71    77   am
    59    71    70    1
    60    62    61    1
    61    59    58    1
    62    59    69   am
    63    51    50    2
    64    70    69    1
    65    70    73    1
    66    58    61    1
    67    58    57    1
    68    79    80    2
    69    76    74    1
    70    50    57   am
    71    50    49    1
    72    73    74    1
    73    74    75    1
    74    49    52    1
    75    49    48    1
    76    52    53    1
    77    53    54    1
    78    56    54   ar
    79    54    55   ar
