@<TRIPOS>MOLECULE
tmp/2px1A01.pdb
 81 74 0 0 0
SMALL
GASTEIGER

@<TRIPOS>ATOM
      1  N        -23.8470   -0.0690   19.1630 N.3   127  ASN127     -0.1225
      2  CA       -24.6350    1.0650   19.6360 C.3   127  ASN127      0.1785
      3  C        -25.6320    1.5970   18.6200 C.2   127  ASN127      0.2597
      4  O        -26.7970    1.8240   18.9420 O.2   127  ASN127     -0.2718
      5  CB       -23.7170    2.1860   20.1420 C.3   127  ASN127      0.1169
      6  CG       -22.9060    1.7540   21.3550 C.2   127  ASN127      0.2627
      7  OD1      -23.1990    0.7210   21.9530 O.2   127  ASN127     -0.2716
      8  ND2      -21.9010    2.5440   21.7350 N.am  127  ASN127     -0.0877
      9  N        -25.2030    1.7740   17.3750 N.am  128  ILE128     -0.1980
     10  CA       -26.1180    2.3120   16.3660 C.3   128  ILE128      0.1595
     11  C        -27.2580    1.3250   16.1090 C.2   128  ILE128      0.2287
     12  O        -28.4100    1.5880   16.4720 O.2   128  ILE128     -0.2864
     13  CB       -25.3760    2.6830   15.0740 C.3   128  ILE128      0.0276
     14  CG1      -24.3500    3.7960   15.3640 C.3   128  ILE128      0.0022
     15  CG2      -26.3760    3.1440   14.0020 C.3   128  ILE128      0.0022
     16  CD1      -24.9010    4.9930   16.1200 C.3   128  ILE128      0.0001
     17  N        -29.4040    0.3630   19.2320 N.3   131  GLY131     -0.1210
     18  CA       -30.1520    1.4850   19.7440 C.3   131  GLY131      0.1956
     19  C        -31.3200    1.6380   18.7640 C.2   131  GLY131      0.2611
     20  O        -32.4640    1.8230   19.1750 O.2   131  GLY131     -0.2717
     21  N        -31.0670    1.5460   17.4570 N.am  132  LEU132     -0.1979
     22  CA       -32.1630    1.6720   16.4910 C.3   132  LEU132      0.1596
     23  C        -33.2240    0.6040   16.7490 C.2   132  LEU132      0.2287
     24  O        -34.4070    0.9170   16.8710 O.2   132  LEU132     -0.2864
     25  CB       -31.6430    1.5770   15.0470 C.3   132  LEU132      0.0297
     26  CG       -30.8170    2.7990   14.6000 C.3   132  LEU132      0.0022
     27  CD1      -30.0940    2.4910   13.2910 C.3   132  LEU132      0.0001
     28  CD2      -31.7360    4.0230   14.4420 C.3   132  LEU132      0.0001
     29  N        -35.1710    1.0140   19.9770 N.3   135  ASN135     -0.1240
     30  CA       -36.0970    2.1170   19.7310 C.3   135  ASN135      0.1653
     31  C        -37.3000    1.6890   18.9240 C.2   135  ASN135      0.2266
     32  O        -38.4410    2.0190   19.2590 O.2   135  ASN135     -0.2867
     33  CB       -35.4010    3.2440   18.9950 C.3   135  ASN135      0.1155
     34  CG       -34.7510    4.2090   19.9310 C.2   135  ASN135      0.2627
     35  OD1      -34.6650    3.9770   21.1140 O.2   135  ASN135     -0.2716
     36  ND2      -34.2760    5.3120   19.4030 N.am  135  ASN135     -0.0877
     37  N        -23.5570   15.3170   20.5350 N.3   322  THR322     -0.1203
     38  CA       -24.7560   15.1190   21.3500 C.3   322  THR322      0.1994
     39  C        -25.6900   14.0380   20.8400 C.2   322  THR322      0.2617
     40  O        -26.2610   13.2830   21.6280 O.2   322  THR322     -0.2717
     41  CB       -25.5550   16.4500   21.5110 C.3   322  THR322      0.1784
     42  OG1      -24.7330   17.5570   21.1110 O.3   322  THR322     -0.2211
     43  CG2      -25.9390   16.6500   22.9770 C.3   322  THR322      0.0376
     44  N        -25.8500   13.9710   19.5250 N.am  323  GLU323     -0.1979
     45  CA       -26.7070   12.9620   18.9200 C.3   323  GLU323      0.1602
     46  C        -26.1850   11.5850   19.3500 C.2   323  GLU323      0.2287
     47  O        -26.9210   10.7840   19.9230 O.2   323  GLU323     -0.2864
     48  CB       -26.6710   13.0670   17.3830 C.3   323  GLU323      0.0415
     49  CG       -27.9930   13.5040   16.7100 C.3   323  GLU323      0.1163
     50  CD       -28.6950   12.3840   15.9430 C.2   323  GLU323      0.3649
     51  OE1      -28.7000   12.4200   14.6920 O.co2 323  GLU323     -0.2457
     52  OE2      -29.2420   11.4690   16.5940 O.co2 323  GLU323     -0.2457
     53  N        -26.4930   10.6890   23.2290 N.3   326  THR326     -0.1203
     54  CA       -27.8450   10.4340   23.7230 C.3   326  THR326      0.1994
     55  C        -28.2150    8.9980   23.4080 C.2   326  THR326      0.2617
     56  O        -28.7970    8.2950   24.2320 O.2   326  THR326     -0.2717
     57  CB       -28.8820   11.3540   23.0580 C.3   326  THR326      0.1784
     58  OG1      -28.8540   11.1620   21.6340 O.3   326  THR326     -0.2211
     59  CG2      -28.5950   12.8060   23.3930 C.3   326  THR326      0.0376
     60  N        -27.8680    8.5600   22.2060 N.am  327  ALA327     -0.1979
     61  CA       -28.1640    7.2030   21.7850 C.3   327  ALA327      0.1597
     62  C        -27.5500    6.1770   22.7570 C.2   327  ALA327      0.2287
     63  O        -28.2450    5.2730   23.2140 O.2   327  ALA327     -0.2864
     64  CB       -27.6520    6.9800   20.3460 C.3   327  ALA327      0.0319
     65  N        -29.3820    6.2400   26.2770 N.3   330  ASN330     -0.1240
     66  CA       -30.6990    5.6460   26.0350 C.3   330  ASN330      0.1653
     67  C        -30.5450    4.1190   25.8370 C.2   330  ASN330      0.2266
     68  O        -31.3790    3.3520   26.3140 O.2   330  ASN330     -0.2867
     69  CB       -31.3520    6.2580   24.7800 C.3   330  ASN330      0.1155
     70  CG       -32.1890    7.4910   25.0840 C.2   330  ASN330      0.2627
     71  OD1      -32.6890    7.6430   26.1970 O.2   330  ASN330     -0.2716
     72  ND2      -32.3660    8.3630   24.0910 N.am  330  ASN330     -0.0877
     73  N        -29.5870    2.2520   29.1140 N.3   333  LYS333     -0.1245
     74  CA       -30.6490    2.2880   30.1190 C.3   333  LYS333      0.1561
     75  C        -31.2100    0.8630   30.2350 C.2   333  LYS333      0.2260
     76  O        -31.8650    0.5060   31.2170 O.2   333  LYS333     -0.2867
     77  CB       -31.7640    3.2580   29.7090 C.3   333  LYS333      0.0271
     78  CG       -31.4950    4.6900   30.1300 C.3   333  LYS333      0.0035
     79  CD       -32.6010    5.6260   29.6830 C.3   333  LYS333      0.0206
     80  CE       -32.1250    7.0720   29.6440 C.3   333  LYS333      0.1093
     81  NZ       -33.1160    7.9660   28.9820 N.3   333  LYS333     -0.1314
@<TRIPOS>BOND
     1    27    26    1
     2    15    13    1
     3    28    26    1
     4    26    25    1
     5    51    50   ar
     6    25    22    1
     7    13    14    1
     8    13    10    1
     9    14    16    1
    10    50    52   ar
    11    50    49    1
    12    11    10    1
    13    11    12    2
    14    10     9    1
    15    22    23    1
    16    22    21    1
    17    49    48    1
    18    23    24    2
    19     9     3   am
    20    48    45    1
    21    21    19   am
    22     3     4    2
    23     3     2    1
    24    19    20    2
    25    19    18    1
    26    45    46    1
    27    45    44    1
    28    31    32    2
    29    31    30    1
    30    33    30    1
    31    33    34    1
    32     1     2    1
    33    17    18    1
    34    46    47    2
    35    36    34   am
    36    44    39   am
    37     2     5    1
    38    30    29    1
    39    34    35    2
    40     5     6    1
    41    64    61    1
    42    37    38    1
    43    39    38    1
    44    39    40    2
    45    42    41    1
    46    38    41    1
    47     6     8   am
    48     6     7    2
    49    41    43    1
    50    58    57    1
    51    61    60    1
    52    61    62    1
    53    60    55   am
    54    62    63    2
    55    57    59    1
    56    57    54    1
    57    53    54    1
    58    55    54    1
    59    55    56    2
    60    72    70   am
    61    69    70    1
    62    69    66    1
    63    70    71    2
    64    67    66    1
    65    67    68    2
    66    66    65    1
    67    81    80    1
    68    73    74    1
    69    80    79    1
    70    79    78    1
    71    77    74    1
    72    77    78    1
    73    74    75    1
    74    75    76    2
