@<TRIPOS>MOLECULE
tmp/2px1A02.pdb
 135 128 0 0 0
SMALL
GASTEIGER

@<TRIPOS>ATOM
      1  N         -9.1570    9.3220    7.7120 N.3    74  ARG74      -0.1231
      2  CA        -9.0420    8.4490    6.5430 C.3    74  ARG74       0.1694
      3  C         -8.9020    9.2570    5.2580 C.2    74  ARG74       0.2592
      4  O         -8.9200   10.4920    5.2720 O.2    74  ARG74      -0.2718
      5  CB       -10.2580    7.5140    6.4430 C.3    74  ARG74       0.0321
      6  CG       -11.5930    8.2030    6.1760 C.3    74  ARG74       0.0489
      7  CD       -12.7810    7.3360    6.5950 C.3    74  ARG74       0.2205
      8  NE       -14.0290    8.1000    6.6410 N.pl3  74  ARG74      -0.0865
      9  CZ       -14.7800    8.4050    5.5860 C.cat  74  ARG74       0.5346
     10  NH1      -15.8900    9.1120    5.7490 N.pl3  74  ARG74       0.1354
     11  NH2      -14.4420    7.9850    4.3770 N.pl3  74  ARG74       0.1354
     12  N         -8.7530    8.5460    4.1450 N.am   75  LYS75      -0.1966
     13  CA        -8.5870    9.1770    2.8380 C.3    75  LYS75       0.1728
     14  C         -9.8590    9.8290    2.3140 C.2    75  LYS75       0.2617
     15  O        -10.7580    9.1720    1.7790 O.2    75  LYS75      -0.2715
     16  CB        -8.0360    8.1610    1.8240 C.3    75  LYS75       0.0311
     17  CG        -8.2230    8.5310    0.3570 C.3    75  LYS75       0.0038
     18  CD        -6.9940    8.2490   -0.5240 C.3    75  LYS75       0.0206
     19  CE        -6.4230    6.8460   -0.3410 C.3    75  LYS75       0.1093
     20  NZ        -5.4690    6.7620    0.7870 N.3    75  LYS75      -0.1314
     21  N         -9.9220   11.1430    2.4890 N.am   76  SER76      -0.1936
     22  CA       -11.0570   11.9360    2.0390 C.3    76  SER76       0.2055
     23  C        -10.5300   12.8690    0.9590 C.2    76  SER76       0.2643
     24  O         -9.3760   13.3010    1.0210 O.2    76  SER76      -0.2714
     25  CB       -11.6160   12.7870    3.1830 C.3    76  SER76       0.2130
     26  OG       -10.9090   14.0160    3.2930 O.3    76  SER76      -0.2179
     27  N        -11.3620   13.1720   -0.0340 N.am   77  SER77      -0.1949
     28  CA       -10.9640   14.0860   -1.1000 C.3    77  SER77       0.1924
     29  C        -11.2820   15.5420   -0.6950 C.2    77  SER77       0.2314
     30  O        -10.3760   16.3780   -0.6500 O.2    77  SER77      -0.2863
     31  CB       -11.6660   13.7270   -2.4170 C.3    77  SER77       0.2116
     32  OG       -13.0160   13.3450   -2.2360 O.3    77  SER77      -0.2180
     33  N        -19.3770    6.0010    7.8670 N.3    93  LEU93      -0.1245
     34  CA       -20.7460    5.5670    7.7040 C.3    93  LEU93       0.1561
     35  C        -21.0470    4.1940    8.2660 C.2    93  LEU93       0.2260
     36  O        -20.5640    3.1840    7.7660 O.2    93  LEU93      -0.2867
     37  CB       -21.1300    5.6570    6.2160 C.3    93  LEU93       0.0270
     38  CG       -20.9150    7.0060    5.4840 C.3    93  LEU93       0.0019
     39  CD1      -21.0160    6.8080    3.9590 C.3    93  LEU93       0.0001
     40  CD2      -21.9470    8.0370    5.9630 C.3    93  LEU93       0.0001
     41  N        -19.0590    1.5880    6.0580 N.3   204  ASN204     -0.1225
     42  CA       -19.0080    1.6230    4.6020 C.3   204  ASN204      0.1785
     43  C        -17.7000    1.1220    4.0770 C.2   204  ASN204      0.2597
     44  O        -17.6310    0.3220    3.1460 O.2   204  ASN204     -0.2718
     45  CB       -19.2020    3.0530    4.0810 C.3   204  ASN204      0.1169
     46  CG       -18.6790    3.2380    2.6430 C.2   204  ASN204      0.2627
     47  OD1      -19.1480    2.5660    1.7410 O.2   204  ASN204     -0.2716
     48  ND2      -17.7250    4.1680    2.4710 N.am  204  ASN204     -0.0877
     49  N        -16.6480    1.6020    4.7070 N.am  205  ASP205     -0.1974
     50  CA       -15.3090    1.2800    4.2910 C.3   205  ASP205      0.1709
     51  C        -14.9830   -0.2120    4.2900 C.2   205  ASP205      0.2293
     52  O        -14.3130   -0.7100    3.3810 O.2   205  ASP205     -0.2864
     53  CB       -14.3210    2.0960    5.1390 C.3   205  ASP205      0.1436
     54  CG       -14.7040    3.6060    5.2210 C.2   205  ASP205      0.3671
     55  OD1      -15.6300    3.9850    5.9850 O.co2 205  ASP205     -0.2456
     56  OD2      -14.0730    4.4210    4.5070 O.co2 205  ASP205     -0.2456
     57  N        -15.9120   -2.1430    1.1100 N.3   208  TRP208     -0.1227
     58  CA       -14.9800   -1.8360    0.0230 C.3   208  TRP208      0.1737
     59  C        -13.5900   -2.4510    0.1940 C.2   208  TRP208      0.2595
     60  O        -13.0600   -3.0770   -0.7200 O.2   208  TRP208     -0.2718
     61  CB       -14.8400   -0.3300   -0.1390 C.3   208  TRP208      0.0564
     62  CG       -16.0610    0.2940   -0.7080 C.ar  208  TRP208      0.0003
     63  CD1      -17.2350    0.5380   -0.0630 C.ar  208  TRP208      0.0946
     64  CD2      -16.2460    0.7380   -2.0570 C.ar  208  TRP208      0.0152
     65  NE1      -18.1550    1.0740   -0.9320 N.ar  208  TRP208     -0.2442
     66  CE2      -17.5890    1.1630   -2.1760 C.ar  208  TRP208      0.0810
     67  CE3      -15.4460    0.7020   -3.2100 C.ar  208  TRP208      0.0012
     68  CZ2      -18.1020    1.6960   -3.3650 C.ar  208  TRP208      0.0191
     69  CZ3      -15.9610    1.2200   -4.3960 C.ar  208  TRP208      0.0001
     70  CH2      -17.2930    1.6590   -4.4760 C.ar  208  TRP208      0.0015
     71  N        -13.0080   -2.2740    1.3750 N.am  209  GLU209     -0.1979
     72  CA       -11.6750   -2.7910    1.6860 C.3   209  GLU209      0.1602
     73  C        -11.5290   -4.3000    1.6450 C.2   209  GLU209      0.2287
     74  O        -10.4140   -4.8080    1.6780 O.2   209  GLU209     -0.2864
     75  CB       -11.2270   -2.2860    3.0630 C.3   209  GLU209      0.0415
     76  CG       -10.4750   -0.9550    3.0570 C.3   209  GLU209      0.1163
     77  CD       -10.6670   -0.1220    4.3320 C.2   209  GLU209      0.3649
     78  OE1      -10.5330   -0.6560    5.4570 O.co2 209  GLU209     -0.2457
     79  OE2      -10.9420    1.0930    4.1930 O.co2 209  GLU209     -0.2457
     80  N         -9.4500   -6.1880   -3.0450 N.3   214  GLU214     -0.1245
     81  CA        -8.8130   -5.2770   -2.0920 C.3   214  GLU214      0.1567
     82  C         -8.1490   -5.9290   -0.8650 C.2   214  GLU214      0.2260
     83  O         -7.4630   -5.2350   -0.1130 O.2   214  GLU214     -0.2867
     84  CB        -9.8180   -4.2340   -1.5970 C.3   214  GLU214      0.0388
     85  CG       -10.3230   -3.2040   -2.6210 C.3   214  GLU214      0.1160
     86  CD        -9.2450   -2.2470   -3.1040 C.2   214  GLU214      0.3649
     87  OE1       -8.3890   -1.8440   -2.2920 O.co2 214  GLU214     -0.2457
     88  OE2       -9.2660   -1.8790   -4.2960 O.co2 214  GLU214     -0.2457
     89  N        -18.3230   -6.8230   -4.6730 N.3   225  ARG225     -0.1245
     90  CA       -19.2400   -5.8270   -4.1310 C.3   225  ARG225      0.1563
     91  C        -20.6940   -6.0600   -4.5110 C.2   225  ARG225      0.2260
     92  O        -21.5910   -5.8670   -3.6860 O.2   225  ARG225     -0.2867
     93  CB       -18.8290   -4.4190   -4.5760 C.3   225  ARG225      0.0307
     94  CG       -17.4670   -4.0330   -4.0830 C.3   225  ARG225      0.0489
     95  CD       -17.1970   -2.5550   -4.1600 C.3   225  ARG225      0.2205
     96  NE       -15.8330   -2.3160   -3.7090 N.pl3 225  ARG225     -0.0865
     97  CZ       -14.7860   -2.2030   -4.5190 C.cat 225  ARG225      0.5346
     98  NH1      -14.9390   -2.2820   -5.8350 N.pl3 225  ARG225      0.1354
     99  NH2      -13.5740   -2.0480   -4.0060 N.pl3 225  ARG225      0.1354
    100  N        -23.6220   -1.2270   -2.5410 N.3   240  VAL240     -0.1231
    101  CA       -22.6560   -0.6730   -1.6160 C.3   240  VAL240      0.1692
    102  C        -21.9670    0.5700   -2.1400 C.2   240  VAL240      0.2592
    103  O        -20.9870    1.0400   -1.5450 O.2   240  VAL240     -0.2718
    104  CB       -21.6230   -1.7630   -1.1730 C.3   240  VAL240      0.0266
    105  CG1      -22.3720   -3.0760   -0.8800 C.3   240  VAL240      0.0020
    106  CG2      -20.5520   -1.9560   -2.2090 C.3   240  VAL240      0.0020
    107  N        -22.4850    1.0960   -3.2520 N.am  241  THR241     -0.1953
    108  CA       -21.9740    2.3370   -3.8340 C.3   241  THR241      0.1897
    109  C        -22.8850    3.4730   -3.3030 C.2   241  THR241      0.2313
    110  O        -22.5360    4.6500   -3.3760 O.2   241  THR241     -0.2863
    111  CB       -22.0210    2.3530   -5.4040 C.3   241  THR241      0.1794
    112  OG1      -23.2060    1.6940   -5.8750 O.3   241  THR241     -0.2208
    113  CG2      -20.7920    1.6970   -5.9970 C.3   241  THR241      0.0378
    114  N        -23.7730    4.2030   -0.1070 N.3   243  ALA243     -0.1231
    115  CA       -23.6500    4.4440    1.3180 C.3   243  ALA243      0.1694
    116  C        -24.0390    5.8740    1.7990 C.2   243  ALA243      0.2591
    117  O        -24.6600    5.9700    2.8500 O.2   243  ALA243     -0.2718
    118  CB       -22.2330    4.0530    1.7910 C.3   243  ALA243      0.0304
    119  N        -23.7100    6.9300    1.0470 N.am  244  GLN244     -0.1979
    120  CA       -24.0280    8.3110    1.4330 C.3   244  GLN244      0.1601
    121  C        -25.5200    8.4630    1.6570 C.2   244  GLN244      0.2287
    122  O        -25.9720    9.4040    2.3250 O.2   244  GLN244     -0.2864
    123  CB       -23.5860    9.3140    0.3630 C.3   244  GLN244      0.0394
    124  CG       -22.3500    8.9660   -0.3960 C.3   244  GLN244      0.0908
    125  CD       -22.4650    7.5480   -0.9300 C.2   244  GLN244      0.2608
    126  OE1      -23.3270    7.2480   -1.7570 O.2   244  GLN244     -0.2717
    127  NE2      -21.6270    6.6590   -0.4210 N.am  244  GLN244     -0.0878
    128  N         -7.1190    2.0100    7.0350 N.3   303  ASN303     -0.1240
    129  CA        -7.3960    3.0860    6.0860 C.3   303  ASN303      0.1653
    130  C         -7.0970    4.4800    6.6260 C.2   303  ASN303      0.2266
    131  O         -7.4610    5.4820    6.0130 O.2   303  ASN303     -0.2867
    132  CB        -8.8460    3.0310    5.5570 C.3   303  ASN303      0.1155
    133  CG        -9.9020    3.3660    6.6140 C.2   303  ASN303      0.2627
    134  OD1       -9.6010    3.8290    7.7130 O.2   303  ASN303     -0.2716
    135  ND2      -11.1620    3.1330    6.2620 N.am  303  ASN303     -0.0877
@<TRIPOS>BOND
     1   113   111    1
     2   112   111    1
     3    98    97    1
     4   111   108    1
     5    89    90    1
     6    93    90    1
     7    93    94    1
     8    97    99    1
     9    97    96    2
    10    91    90    1
    11    91    92    2
    12    70    69   ar
    13    70    68   ar
    14    69    67   ar
    15    88    86   ar
    16    95    94    1
    17    95    96    1
    18   108   109    1
    19   108   107    1
    20   110   109    2
    21    68    66   ar
    22   107   102   am
    23    67    64   ar
    24    86    85    1
    25    86    87   ar
    26    80    81    1
    27    85    84    1
    28   100   101    1
    29    31    32    1
    30    31    28    1
    31   106   104    1
    32    66    64   ar
    33    66    65   ar
    34   102   101    1
    35   102   103    2
    36    81    84    1
    37    81    82    1
    38    64    62   ar
    39   126   125    2
    40   101   104    1
    41   104   105    1
    42    28    29    1
    43    28    27    1
    44    65    63   ar
    45   125   127   am
    46   125   124    1
    47    82    83    2
    48    60    59    2
    49    62    61    1
    50    62    63   ar
    51    29    30    2
    52    18    19    1
    53    18    17    1
    54   124   123    1
    55    19    20    1
    56    61    58    1
    57   114   115    1
    58    27    23   am
    59    58    59    1
    60    58    57    1
    61    59    71   am
    62    17    16    1
    63   123   120    1
    64    23    24    2
    65    23    22    1
    66   119   120    1
    67   119   116   am
    68   115   118    1
    69   115   116    1
    70    71    72    1
    71   120   121    1
    72    73    74    2
    73    73    72    1
    74   121   122    2
    75    72    75    1
    76    47    46    2
    77    15    14    2
    78   116   117    2
    79    16    13    1
    80    22    21    1
    81    22    25    1
    82    14    21   am
    83    14    13    1
    84    48    46   am
    85    46    45    1
    86    13    12    1
    87    76    75    1
    88    76    77    1
    89    44    43    2
    90    25    26    1
    91    52    51    2
    92    39    38    1
    93    43    42    1
    94    43    49   am
    95    45    42    1
    96    12     3   am
    97    79    77   ar
    98    51    50    1
    99    50    49    1
   100    50    53    1
   101    77    78   ar
   102    11     9    1
   103    56    54   ar
   104    42    41    1
   105    53    54    1
   106    54    55   ar
   107     3     4    2
   108     3     2    1
   109    38    40    1
   110    38    37    1
   111   132   129    1
   112   132   133    1
   113     9    10    1
   114     9     8    2
   115   131   130    2
   116   129   130    1
   117   129   128    1
   118     6     5    1
   119     6     7    1
   120    37    34    1
   121   135   133   am
   122     5     2    1
   123     2     1    1
   124     7     8    1
   125   133   134    2
   126    34    33    1
   127    34    35    1
   128    36    35    2
