@<TRIPOS>MOLECULE
tmp/2px3A00.pdb
 153 142 0 0 0
SMALL
GASTEIGER

@<TRIPOS>ATOM
      1  N         -1.0190   -8.6110    3.1890 N.3    76  THR76      -0.1203
      2  CA        -0.5360   -7.5260    2.3370 C.3    76  THR76       0.1994
      3  C         -1.6790   -6.6070    1.9050 C.2    76  THR76       0.2618
      4  O         -2.7010   -7.0740    1.3940 O.2    76  THR76      -0.2717
      5  CB         0.1100   -8.0710    1.0200 C.3    76  THR76       0.1784
      6  OG1       -0.8770   -8.7650    0.2360 O.3    76  THR76      -0.2211
      7  CG2        1.2530   -9.0260    1.3260 C.3    76  THR76       0.0376
      8  N         -1.4970   -5.3040    2.0930 N.am   77  GLY77      -0.1942
      9  CA        -2.5040   -4.3420    1.6840 C.3    77  GLY77       0.2014
     10  C         -3.6810   -4.1490    2.6160 C.2    77  GLY77       0.2639
     11  O         -4.4500   -3.2120    2.4320 O.2    77  GLY77      -0.2714
     12  N         -3.8260   -5.0130    3.6170 N.am   78  ALA78      -0.1963
     13  CA        -4.9530   -4.9300    4.5560 C.3    78  ALA78       0.1728
     14  C         -5.0380   -3.6120    5.3330 C.2    78  ALA78       0.2617
     15  O         -6.1280   -3.1700    5.6990 O.2    78  ALA78      -0.2715
     16  CB        -4.9100   -6.1170    5.5360 C.3    78  ALA78       0.0334
     17  N         -3.8950   -2.9900    5.5920 N.am   79  GLY79      -0.1940
     18  CA        -3.9110   -1.7400    6.3190 C.3    79  GLY79       0.2014
     19  C         -3.1750   -1.7750    7.6460 C.2    79  GLY79       0.2639
     20  O         -3.7220   -1.3690    8.6700 O.2    79  GLY79      -0.2714
     21  N         -1.9390   -2.2680    7.6380 N.am   80  LYS80      -0.1963
     22  CA        -1.1340   -2.3170    8.8480 C.3    80  LYS80       0.1728
     23  C         -0.6230   -0.9120    9.1410 C.2    80  LYS80       0.2617
     24  O         -0.8720   -0.3820   10.2160 O.2    80  LYS80      -0.2715
     25  CB         0.0220   -3.3050    8.6770 C.3    80  LYS80       0.0311
     26  CG        -0.4600   -4.7510    8.6230 C.3    80  LYS80       0.0038
     27  CD         0.6510   -5.7530    8.4150 C.3    80  LYS80       0.0206
     28  CE         1.4040   -5.4360    7.1580 C.3    80  LYS80       0.1093
     29  NZ         0.4720   -4.9830    6.1050 N.3    80  LYS80      -0.1314
     30  N          0.0650   -0.2990    8.1790 N.am   81  THR81      -0.1937
     31  CA         0.5940    1.0620    8.3340 C.3    81  THR81       0.2028
     32  C         -0.5090    2.0780    8.6250 C.2    81  THR81       0.2643
     33  O         -0.5300    2.7010    9.6870 O.2    81  THR81      -0.2714
     34  CB         1.3200    1.5270    7.0670 C.3    81  THR81       0.1808
     35  OG1        2.4500    0.6820    6.8300 O.3    81  THR81      -0.2208
     36  CG2        1.7810    2.9720    7.2130 C.3    81  THR81       0.0379
     37  N         -1.4150    2.2550    7.6690 N.am   82  THR82      -0.1936
     38  CA        -2.5230    3.1830    7.8320 C.3    82  THR82       0.2028
     39  C         -3.1760    3.0360    9.2030 C.2    82  THR82       0.2642
     40  O         -3.4720    4.0310    9.8640 O.2    82  THR82      -0.2714
     41  CB        -3.5970    2.9590    6.7480 C.3    82  THR82       0.1808
     42  OG1       -3.1100    3.4430    5.4940 O.3    82  THR82      -0.2208
     43  CG2       -4.8860    3.6960    7.0940 C.3    82  THR82       0.0379
     44  N         -3.4030    1.7980    9.6320 N.am   83  THR83      -0.1950
     45  CA        -4.0320    1.5730   10.9260 C.3    83  THR83       0.1897
     46  C         -3.1150    1.9690   12.0730 C.2    83  THR83       0.2313
     47  O         -3.5490    2.6060   13.0320 O.2    83  THR83      -0.2863
     48  CB        -4.4620    0.1020   11.1060 C.3    83  THR83       0.1794
     49  OG1       -5.5080   -0.2070   10.1730 O.3    83  THR83      -0.2208
     50  CG2       -4.9590   -0.1340   12.5370 C.3    83  THR83       0.0378
     51  N         -3.1490    5.4630   12.7590 N.3    86  LYS86      -0.1245
     52  CA        -4.3710    5.8750   13.4300 C.3    86  LYS86       0.1561
     53  C         -4.2220    5.7060   14.9330 C.2    86  LYS86       0.2260
     54  O         -4.3760    6.6670   15.6910 O.2    86  LYS86      -0.2867
     55  CB        -5.5630    5.0540   12.9320 C.3    86  LYS86       0.0271
     56  CG        -6.0100    5.3890   11.5190 C.3    86  LYS86       0.0035
     57  CD        -7.1250    4.4450   11.0810 C.3    86  LYS86       0.0206
     58  CE        -7.7620    4.8880    9.7680 C.3    86  LYS86       0.1093
     59  NZ        -8.7270    3.8960    9.2260 N.3    86  LYS86      -0.1314
     60  N          9.4920   -2.8580    8.2400 N.3   105  ASP105     -0.1239
     61  CA         9.2810   -2.9650    6.8110 C.3   105  ASP105      0.1674
     62  C         10.5520   -2.5520    6.0960 C.2   105  ASP105      0.2266
     63  O         10.5990   -1.5170    5.4350 O.2   105  ASP105     -0.2867
     64  CB         8.1160   -2.0790    6.3650 C.3   105  ASP105      0.1410
     65  CG         7.4950   -2.5600    5.0740 C.2   105  ASP105      0.3668
     66  OD1        8.2430   -2.8080    4.1130 O.co2 105  ASP105     -0.2456
     67  OD2        6.2640   -2.7020    4.9980 O.co2 105  ASP105     -0.2456
     68  N          8.8230    1.1390    0.3930 N.3   109  ALA109     -0.1245
     69  CA         7.7430    0.8460    1.3250 C.3   109  ALA109      0.1562
     70  C          8.0090    1.2820    2.7720 C.2   109  ALA109      0.2260
     71  O          7.6300    0.5730    3.7080 O.2   109  ALA109     -0.2867
     72  CB         7.4480   -0.6580    1.2830 C.3   109  ALA109      0.0290
     73  N          6.5980    6.3090    3.6900 N.3   112  GLN112     -0.1245
     74  CA         5.2280    6.6460    4.0260 C.3   112  GLN112      0.1566
     75  C          5.1450    6.9520    5.5320 C.2   112  GLN112      0.2260
     76  O          4.6620    8.0140    5.9350 O.2   112  GLN112     -0.2867
     77  CB         4.3160    5.4630    3.6560 C.3   112  GLN112      0.0367
     78  CG         2.8340    5.6200    4.0210 C.3   112  GLN112      0.0905
     79  CD         1.9760    4.4290    3.5900 C.2   112  GLN112      0.2608
     80  OE1        0.7810    4.3700    3.8860 O.2   112  GLN112     -0.2717
     81  NE2        2.5850    3.4800    2.8870 N.am  112  GLN112     -0.0878
     82  N          5.4740   -1.0740   13.0080 N.3   149  ASP149     -0.1225
     83  CA         4.8790   -1.5060   11.7490 C.3   149  ASP149      0.1805
     84  C          5.8060   -2.5610   11.1800 C.2   149  ASP149      0.2598
     85  O          7.0180   -2.4570   11.2900 O.2   149  ASP149     -0.2718
     86  CB         4.7560   -0.3520   10.7530 C.3   149  ASP149      0.1424
     87  CG         4.0090   -0.7520    9.4860 C.2   149  ASP149      0.3668
     88  OD1        3.6600   -1.9400    9.3290 O.co2 149  ASP149     -0.2456
     89  OD2        3.7700    0.1260    8.6390 O.co2 149  ASP149     -0.2456
     90  N          5.2270   -3.5800   10.5740 N.am  150  THR150     -0.1953
     91  CA         6.0060   -4.6530   10.0020 C.3   150  THR150      0.1897
     92  C          5.6710   -4.8120    8.5310 C.2   150  THR150      0.2313
     93  O          4.5650   -4.4840    8.1100 O.2   150  THR150     -0.2863
     94  CB         5.7030   -5.9620   10.7280 C.3   150  THR150      0.1794
     95  OG1        4.2990   -6.2510   10.6450 O.3   150  THR150     -0.2208
     96  CG2        6.0960   -5.8420   12.1800 C.3   150  THR150      0.0378
     97  N          4.6590   -6.6130    5.0760 N.3   152  GLY152     -0.1225
     98  CA         3.6940   -7.6740    4.8420 C.3   152  GLY152      0.1811
     99  C          3.9530   -8.5510    3.6250 C.2   152  GLY152      0.2280
    100  O          4.3750   -8.0900    2.5630 O.2   152  GLY152     -0.2866
    101  N        -10.0560   -4.9170    9.1190 N.3   207  THR207     -0.1203
    102  CA       -10.1610   -3.6590    8.4010 C.3   207  THR207      0.1994
    103  C        -11.1410   -3.7080    7.2550 C.2   207  THR207      0.2617
    104  O        -11.6740   -4.7500    6.9050 O.2   207  THR207     -0.2717
    105  CB        -8.7990   -3.2140    7.8220 C.3   207  THR207      0.1784
    106  OG1       -8.2770   -4.2430    6.9750 O.3   207  THR207     -0.2211
    107  CG2       -7.8130   -2.9400    8.9290 C.3   207  THR207      0.0376
    108  N        -11.3680   -2.5360    6.6900 N.am  208  LYS208     -0.1979
    109  CA       -12.2350   -2.3610    5.5520 C.3   208  LYS208      0.1596
    110  C        -13.6180   -2.9520    5.7230 C.2   208  LYS208      0.2287
    111  O        -14.1620   -3.5580    4.7960 O.2   208  LYS208     -0.2864
    112  CB       -11.5410   -2.9360    4.3220 C.3   208  LYS208      0.0298
    113  CG       -10.0640   -2.5950    4.2920 C.3   208  LYS208      0.0038
    114  CD        -9.5110   -2.7780    2.9210 C.3   208  LYS208      0.0206
    115  CE        -8.0160   -2.5430    2.8560 C.3   208  LYS208      0.1093
    116  NZ        -7.5070   -2.6950    1.4510 N.3   208  LYS208     -0.1314
    117  N        -15.9400   -1.3030    5.7640 N.3   210  ASP210     -0.1225
    118  CA       -16.7280   -0.4330    4.9050 C.3   210  ASP210      0.1805
    119  C        -16.6320   -0.8380    3.4450 C.2   210  ASP210      0.2597
    120  O        -17.2140   -0.1790    2.5940 O.2   210  ASP210     -0.2718
    121  CB       -16.2880    1.0230    5.0390 C.3   210  ASP210      0.1424
    122  CG       -14.9230    1.2780    4.4420 C.2   210  ASP210      0.3668
    123  OD1      -13.9640    0.6120    4.8760 O.co2 210  ASP210     -0.2456
    124  OD2      -14.8080    2.1450    3.5510 O.co2 210  ASP210     -0.2456
    125  N        -15.9000   -1.9080    3.1430 N.am  211  GLU211     -0.1979
    126  CA       -15.7790   -2.3530    1.7570 C.3   211  GLU211      0.1602
    127  C        -16.4590   -3.6930    1.4770 C.2   211  GLU211      0.2287
    128  O        -16.9610   -3.9000    0.3800 O.2   211  GLU211     -0.2864
    129  CB       -14.3060   -2.4400    1.3270 C.3   211  GLU211      0.0415
    130  CG       -13.6000   -1.1000    1.1650 C.3   211  GLU211      0.1163
    131  CD       -12.2680   -1.2240    0.4370 C.2   211  GLU211      0.3649
    132  OE1      -11.4520   -2.0630    0.8380 O.co2 211  GLU211     -0.2457
    133  OE2      -12.0230   -0.4840   -0.5360 O.co2 211  GLU211     -0.2457
    134  N        -11.2880   -1.3210   11.4530 N.3   233  THR233     -0.1218
    135  CA       -10.9920   -0.1570   10.6540 C.3   233  THR233      0.1862
    136  C        -12.0280   -0.0600    9.5690 C.2   233  THR233      0.2287
    137  O        -12.2070   -0.9950    8.7980 O.2   233  THR233     -0.2866
    138  CB        -9.5780   -0.2980   10.1180 C.3   233  THR233      0.1770
    139  OG1       -9.6660   -0.5810    8.7150 O.3   233  THR233     -0.2211
    140  CG2       -8.8090   -1.3680   10.8210 C.3   233  THR233      0.0375
    141  N        -12.3690    2.7750    7.2700 N.3   235  GLY235     -0.1210
    142  CA       -12.1810    3.8570    6.3300 C.3   235  GLY235      0.1956
    143  C        -10.7350    4.2210    6.1000 C.2   235  GLY235      0.2611
    144  O         -9.8220    3.5750    6.6170 O.2   235  GLY235     -0.2717
    145  N        -10.5280    5.2780    5.3260 N.am  236  GLN236     -0.1979
    146  CA        -9.1850    5.7240    5.0050 C.3   236  GLN236      0.1601
    147  C         -8.7710    6.9700    5.7720 C.2   236  GLN236      0.2287
    148  O         -7.5750    7.2040    5.9730 O.2   236  GLN236     -0.2864
    149  CB        -9.0680    5.9740    3.4950 C.3   236  GLN236      0.0394
    150  CG        -9.1100    4.7080    2.6510 C.3   236  GLN236      0.0908
    151  CD        -9.1270    4.9830    1.1670 C.2   236  GLN236      0.2608
    152  OE1      -10.1470    5.3860    0.6100 O.2   236  GLN236     -0.2717
    153  NE2       -7.9960    4.7680    0.5150 N.am  236  GLN236     -0.0878
@<TRIPOS>BOND
     1   133   131   ar
     2     6     5    1
     3   128   127    2
     4    68    69    1
     5   131   132   ar
     6   131   130    1
     7   153   151   am
     8   152   151    2
     9     5     7    1
    10     5     2    1
    11   130   129    1
    12   151   150    1
    13    72    69    1
    14    69    70    1
    15   129   126    1
    16     4     3    2
    17   116   115    1
    18   127   126    1
    19     9     8    1
    20     9    10    1
    21   126   125    1
    22     3     8   am
    23     3     2    1
    24     2     1    1
    25    11    10    2
    26   100    99    2
    27   120   119    2
    28    10    12   am
    29   150   149    1
    30    70    71    2
    31   115   114    1
    32    81    79   am
    33   114   113    1
    34   125   119   am
    35   119   118    1
    36   149   146    1
    37   124   122   ar
    38    79    80    2
    39    79    78    1
    40    12    13    1
    41    99    98    1
    42    77    78    1
    43    77    74    1
    44    73    74    1
    45    74    75    1
    46    66    65   ar
    47   113   112    1
    48   112   109    1
    49   122   123   ar
    50   122   121    1
    51    13    14    1
    52    13    16    1
    53   111   110    2
    54    98    97    1
    55   118   121    1
    56   118   117    1
    57    67    65   ar
    58   146   145    1
    59   146   147    1
    60    65    64    1
    61   145   143   am
    62    14    17   am
    63    14    15    2
    64    63    62    2
    65    42    41    1
    66    75    76    2
    67   109   110    1
    68   109   108    1
    69    17    18    1
    70   147   148    2
    71    62    61    1
    72   143   142    1
    73   143   144    2
    74    29    28    1
    75    18    19    1
    76   142   141    1
    77    64    61    1
    78   108   103   am
    79    41    43    1
    80    41    38    1
    81    61    60    1
    82    35    34    1
    83   104   103    2
    84   106   105    1
    85    34    36    1
    86    34    31    1
    87    28    27    1
    88   103   102    1
    89    21    19   am
    90    21    22    1
    91    19    20    2
    92    37    38    1
    93    37    32   am
    94   105   102    1
    95   105   107    1
    96    38    39    1
    97    93    92    2
    98    30    31    1
    99    30    23   am
   100    31    32    1
   101   102   101    1
   102    27    26    1
   103    92    91    1
   104    26    25    1
   105    32    33    2
   106    89    87   ar
   107    25    22    1
   108   139   138    1
   109   137   136    2
   110    22    23    1
   111    23    24    2
   112    39    44   am
   113    39    40    2
   114    59    58    1
   115    88    87   ar
   116    87    86    1
   117   136   135    1
   118    44    45    1
   119    58    57    1
   120    91    90    1
   121    91    94    1
   122   138   135    1
   123   138   140    1
   124    49    48    1
   125    90    84   am
   126    95    94    1
   127   135   134    1
   128    94    96    1
   129    86    83    1
   130    45    48    1
   131    45    46    1
   132    57    56    1
   133    48    50    1
   134    84    85    2
   135    84    83    1
   136    56    55    1
   137    83    82    1
   138    46    47    2
   139    51    52    1
   140    55    52    1
   141    52    53    1
   142    53    54    2
