@<TRIPOS>MOLECULE
tmp/2px6B00.pdb
 182 178 0 0 0
SMALL
GASTEIGER

@<TRIPOS>ATOM
      1  N         -9.6690  -12.0270   -7.4350 N.3     2  LEU2       -0.1245
      2  CA       -10.1020  -11.8230   -6.0570 C.3     2  LEU2        0.1561
      3  C         -9.1340  -12.5280   -5.1000 C.2     2  LEU2        0.2260
      4  O         -9.3830  -12.6140   -3.9020 O.2     2  LEU2       -0.2867
      5  CB       -11.5300  -12.3480   -5.8560 C.3     2  LEU2        0.0270
      6  CG       -12.6610  -11.7340   -6.6860 C.3     2  LEU2        0.0019
      7  CD1      -13.9640  -12.4920   -6.4830 C.3     2  LEU2        0.0001
      8  CD2      -12.8530  -10.2740   -6.3610 C.3     2  LEU2        0.0001
      9  N        -10.6320   -4.8250   -0.2220 N.3    30  ILE30      -0.1231
     10  CA       -10.7490   -5.9580    0.7050 C.3    30  ILE30       0.1692
     11  C        -10.1530   -7.2850    0.1630 C.2    30  ILE30       0.2591
     12  O         -9.5670   -8.0410    0.9330 O.2    30  ILE30      -0.2718
     13  CB       -12.2050   -6.1310    1.2450 C.3    30  ILE30       0.0266
     14  CG1      -12.1930   -6.8560    2.6000 C.3    30  ILE30       0.0019
     15  CG2      -13.1090   -6.8090    0.1940 C.3    30  ILE30       0.0020
     16  CD1      -13.4730   -6.7450    3.4100 C.3    30  ILE30       0.0001
     17  N        -10.2840   -7.5500   -1.1450 N.am   31  GLU31      -0.1979
     18  CA        -9.7790   -8.8040   -1.7320 C.3    31  GLU31       0.1602
     19  C         -8.2450   -8.9800   -1.6440 C.2    31  GLU31       0.2287
     20  O         -7.7360  -10.1080   -1.7450 O.2    31  GLU31      -0.2864
     21  CB       -10.2700   -9.0030   -3.1730 C.3    31  GLU31       0.0415
     22  CG        -9.8730   -7.9110   -4.1480 C.3    31  GLU31       0.1163
     23  CD       -11.0350   -6.9970   -4.5260 C.2    31  GLU31       0.3649
     24  OE1      -11.0670   -6.5640   -5.7040 O.co2  31  GLU31      -0.2457
     25  OE2      -11.9100   -6.7250   -3.6680 O.co2  31  GLU31      -0.2457
     26  N        -11.4650    1.6700   -1.8420 N.3    88  SER88      -0.1202
     27  CA       -12.5440    1.0540   -1.0910 C.3    88  SER88       0.2020
     28  C        -12.0960    0.7400    0.3410 C.2    88  SER88       0.2618
     29  O        -11.8620    1.6590    1.1220 O.2    88  SER88      -0.2717
     30  CB       -13.0700   -0.1700   -1.8410 C.3    88  SER88       0.2103
     31  OG       -14.1950   -0.7370   -1.2040 O.3    88  SER88      -0.2182
     32  N        -11.9640   -0.5450    0.6700 N.am   89  TYR89      -0.1975
     33  CA       -11.3910   -1.0020    1.9430 C.3    89  TYR89       0.1639
     34  C         -9.9990   -0.3980    2.2020 C.2    89  TYR89       0.2290
     35  O         -9.6670   -0.0400    3.3480 O.2    89  TYR89      -0.2864
     36  CB       -11.3010   -2.5270    1.9320 C.3    89  TYR89       0.0560
     37  CG       -10.8460   -3.1560    3.2250 C.ar   89  TYR89      -0.0198
     38  CD1      -11.7840   -3.6230    4.1650 C.ar   89  TYR89      -0.0009
     39  CD2       -9.4990   -3.3130    3.5080 C.ar   89  TYR89      -0.0009
     40  CE1      -11.3720   -4.2160    5.3730 C.ar   89  TYR89       0.0417
     41  CE2       -9.0760   -3.9140    4.7070 C.ar   89  TYR89       0.0417
     42  CZ       -10.0180   -4.3500    5.6330 C.ar   89  TYR89       0.1957
     43  OH        -9.6130   -4.9380    6.8050 O.3    89  TYR89      -0.2866
     44  N        -15.3680    3.2160    9.2970 N.3   123  TYR123     -0.1241
     45  CA       -16.6920    2.6200    9.1920 C.3   123  TYR123      0.1605
     46  C        -17.4070    2.6750   10.5470 C.2   123  TYR123      0.2264
     47  O        -18.3810    3.4110   10.7320 O.2   123  TYR123     -0.2867
     48  CB       -16.5890    1.1680    8.7000 C.3   123  TYR123      0.0534
     49  CG       -15.9860    0.9960    7.3140 C.ar  123  TYR123     -0.0201
     50  CD1      -16.7520    1.2170    6.1610 C.ar  123  TYR123     -0.0009
     51  CD2      -14.6500    0.5990    7.1550 C.ar  123  TYR123     -0.0009
     52  CE1      -16.1950    1.0630    4.8910 C.ar  123  TYR123      0.0417
     53  CE2      -14.0890    0.4370    5.8900 C.ar  123  TYR123      0.0417
     54  CZ       -14.8640    0.6700    4.7700 C.ar  123  TYR123      0.1957
     55  OH       -14.3170    0.5160    3.5230 O.3   123  TYR123     -0.2866
     56  N        -20.5410  -14.6090   12.9890 N.3   127  ALA127     -0.1245
     57  CA       -19.6830  -13.6820   12.2460 C.3   127  ALA127      0.1562
     58  C        -18.8000  -14.4130   11.2200 C.2   127  ALA127      0.2260
     59  O        -18.7530  -14.0260   10.0580 O.2   127  ALA127     -0.2867
     60  CB       -18.8340  -12.8600   13.2120 C.3   127  ALA127      0.0290
     61  N        -21.2440  -16.0270    8.4860 N.3   130  GLU130     -0.1231
     62  CA       -21.7070  -15.0190    7.5310 C.3   130  GLU130      0.1699
     63  C        -20.6100  -14.4820    6.6090 C.2   130  GLU130      0.2592
     64  O        -20.8390  -14.3010    5.4130 O.2   130  GLU130     -0.2718
     65  CB       -22.4200  -13.8610    8.2620 C.3   130  GLU130      0.0402
     66  CG       -23.7940  -14.2310    8.8720 C.3   130  GLU130      0.1161
     67  CD       -24.8870  -14.4830    7.8300 C.2   130  GLU130      0.3649
     68  OE1      -24.6290  -14.2490    6.6240 O.co2 130  GLU130     -0.2457
     69  OE2      -26.0150  -14.8990    8.2240 O.co2 130  GLU130     -0.2457
     70  N        -19.4230  -14.2350    7.1620 N.am  131  ALA131     -0.1980
     71  CA       -18.2960  -13.7250    6.3750 C.3   131  ALA131      0.1597
     72  C        -17.8670  -14.7270    5.3100 C.2   131  ALA131      0.2287
     73  O        -17.6870  -14.3740    4.1420 O.2   131  ALA131     -0.2864
     74  CB       -17.1200  -13.3620    7.2740 C.3   131  ALA131      0.0319
     75  N        -20.6710  -15.2350    2.6040 N.3   134  PHE134     -0.1227
     76  CA       -20.5900  -14.2160    1.5520 C.3   134  PHE134      0.1736
     77  C        -19.3930  -14.4310    0.6150 C.2   134  PHE134      0.2595
     78  O        -19.5120  -14.2660   -0.6040 O.2   134  PHE134     -0.2718
     79  CB       -20.5800  -12.7930    2.1500 C.3   134  PHE134      0.0547
     80  CG       -20.4360  -11.7040    1.1170 C.ar  134  PHE134     -0.0202
     81  CD1      -21.5560  -11.0830    0.5830 C.ar  134  PHE134     -0.0042
     82  CD2      -19.1690  -11.3110    0.6650 C.ar  134  PHE134     -0.0042
     83  CE1      -21.4240  -10.0800   -0.3890 C.ar  134  PHE134     -0.0003
     84  CE2      -19.0270  -10.3270   -0.3050 C.ar  134  PHE134     -0.0003
     85  CZ       -20.1540   -9.7070   -0.8300 C.ar  134  PHE134     -0.0000
     86  N        -18.2470  -14.7880    1.1890 N.am  135  PHE135     -0.1976
     87  CA       -17.0710  -15.1720    0.4040 C.3   135  PHE135      0.1639
     88  C        -17.3670  -16.2910   -0.6070 C.2   135  PHE135      0.2290
     89  O        -17.1100  -16.1250   -1.8010 O.2   135  PHE135     -0.2864
     90  CB       -15.9100  -15.5720    1.3180 C.3   135  PHE135      0.0560
     91  CG       -14.6230  -15.8450    0.5780 C.ar  135  PHE135     -0.0200
     92  CD1      -13.7550  -14.8040    0.2580 C.ar  135  PHE135     -0.0042
     93  CD2      -14.2830  -17.1520    0.1930 C.ar  135  PHE135     -0.0042
     94  CE1      -12.5610  -15.0570   -0.4350 C.ar  135  PHE135     -0.0003
     95  CE2      -13.1010  -17.4160   -0.5020 C.ar  135  PHE135     -0.0003
     96  CZ       -12.2380  -16.3700   -0.8190 C.ar  135  PHE135     -0.0000
     97  N        -19.4840  -15.3400   -3.6120 N.3   138  GLN138     -0.1231
     98  CA       -18.8300  -14.5410   -4.6420 C.3   138  GLN138      0.1698
     99  C        -18.0290  -15.4170   -5.6130 C.2   138  GLN138      0.2592
    100  O        -17.6550  -14.9750   -6.6960 O.2   138  GLN138     -0.2718
    101  CB       -17.9420  -13.4610   -3.9990 C.3   138  GLN138      0.0381
    102  CG       -18.4670  -11.9990   -4.1010 C.3   138  GLN138      0.0905
    103  CD       -19.9790  -11.8380   -3.8940 C.2   138  GLN138      0.2608
    104  OE1      -20.5250  -12.2240   -2.8620 O.2   138  GLN138     -0.2717
    105  NE2      -20.6500  -11.2450   -4.8750 N.am  138  GLN138     -0.0878
    106  N        -17.7880  -16.6630   -5.2240 N.am  139  PHE139     -0.1976
    107  CA       -17.0050  -17.5990   -6.0300 C.3   139  PHE139      0.1639
    108  C        -17.8730  -18.7080   -6.6400 C.2   139  PHE139      0.2290
    109  O        -17.4550  -19.3890   -7.5820 O.2   139  PHE139     -0.2864
    110  CB       -15.8920  -18.2140   -5.1850 C.3   139  PHE139      0.0560
    111  CG       -14.7290  -17.2910   -4.9410 C.ar  139  PHE139     -0.0200
    112  CD1      -14.8000  -16.2970   -3.9650 C.ar  139  PHE139     -0.0042
    113  CD2      -13.5570  -17.4240   -5.6780 C.ar  139  PHE139     -0.0042
    114  CE1      -13.7320  -15.4410   -3.7400 C.ar  139  PHE139     -0.0003
    115  CE2      -12.4760  -16.5780   -5.4510 C.ar  139  PHE139     -0.0003
    116  CZ       -12.5640  -15.5870   -4.4800 C.ar  139  PHE139     -0.0000
    117  N        -10.4130  -12.7960    4.5430 N.3   187  PHE187     -0.1227
    118  CA       -11.6370  -12.0300    4.3420 C.3   187  PHE187      0.1736
    119  C        -12.3680  -11.7830    5.6580 C.2   187  PHE187      0.2595
    120  O        -12.8450  -10.6710    5.9240 O.2   187  PHE187     -0.2718
    121  CB       -12.5630  -12.7490    3.3610 C.3   187  PHE187      0.0547
    122  CG       -13.8240  -11.9970    3.0440 C.ar  187  PHE187     -0.0202
    123  CD1      -15.0640  -12.5170    3.3930 C.ar  187  PHE187     -0.0042
    124  CD2      -13.7750  -10.7720    2.3810 C.ar  187  PHE187     -0.0042
    125  CE1      -16.2440  -11.8250    3.0990 C.ar  187  PHE187     -0.0003
    126  CE2      -14.9380  -10.0820    2.0770 C.ar  187  PHE187     -0.0003
    127  CZ       -16.1780  -10.6080    2.4490 C.ar  187  PHE187     -0.0000
    128  N        -12.4480  -12.8240    6.4780 N.am  188  TYR188     -0.1976
    129  CA       -13.0700  -12.7260    7.7790 C.3   188  TYR188      0.1639
    130  C        -12.3320  -11.7560    8.6960 C.2   188  TYR188      0.2290
    131  O        -12.9510  -10.8830    9.3070 O.2   188  TYR188     -0.2864
    132  CB       -13.1680  -14.1090    8.4520 C.3   188  TYR188      0.0560
    133  CG       -13.5080  -13.9890    9.9160 C.ar  188  TYR188     -0.0198
    134  CD1      -14.7260  -13.4510   10.3180 C.ar  188  TYR188     -0.0009
    135  CD2      -12.5920  -14.3420   10.8940 C.ar  188  TYR188     -0.0009
    136  CE1      -15.0360  -13.3090   11.6630 C.ar  188  TYR188      0.0417
    137  CE2      -12.8820  -14.2090   12.2310 C.ar  188  TYR188      0.0417
    138  CZ       -14.1100  -13.6890   12.6130 C.ar  188  TYR188      0.1957
    139  OH       -14.4270  -13.5490   13.9490 O.3   188  TYR188     -0.2866
    140  N        -12.6780   -8.1020    7.6330 N.3   191  LEU191     -0.1231
    141  CA       -13.9750   -7.5680    8.0190 C.3   191  LEU191      0.1693
    142  C        -13.9870   -7.1990    9.4890 C.2   191  LEU191      0.2591
    143  O        -14.2920   -6.0610    9.8440 O.2   191  LEU191     -0.2718
    144  CB       -15.0720   -8.5910    7.7320 C.3   191  LEU191      0.0284
    145  CG       -15.5440   -8.6620    6.2840 C.3   191  LEU191      0.0019
    146  CD1      -16.4060   -9.8980    6.1140 C.3   191  LEU191      0.0001
    147  CD2      -16.3150   -7.4220    5.9480 C.3   191  LEU191      0.0001
    148  N        -13.6450   -8.1780   10.3250 N.am  192  ARG192     -0.1980
    149  CA       -13.5130   -7.9930   11.7620 C.3   192  ARG192      0.1597
    150  C        -12.7190   -6.7400   12.1120 C.2   192  ARG192      0.2287
    151  O        -13.1700   -5.9560   12.9200 O.2   192  ARG192     -0.2864
    152  CB       -12.8840   -9.2330   12.4070 C.3   192  ARG192      0.0334
    153  CG       -12.9540   -9.2450   13.9300 C.3   192  ARG192      0.0492
    154  CD       -12.0290  -10.3110   14.5200 C.3   192  ARG192      0.2205
    155  NE       -11.4470   -9.8840   15.7990 N.pl3 192  ARG192     -0.0865
    156  CZ       -10.3850   -9.0820   15.9140 C.cat 192  ARG192      0.5346
    157  NH1       -9.7800   -8.6130   14.8320 N.pl3 192  ARG192      0.1354
    158  NH2       -9.9320   -8.7400   17.1160 N.pl3 192  ARG192      0.1354
    159  N        -12.0180   -4.0670   10.2540 N.3   194  ALA194     -0.1231
    160  CA       -12.7320   -2.8820    9.7660 C.3   194  ALA194      0.1694
    161  C        -13.9210   -2.4930   10.6430 C.2   194  ALA194      0.2591
    162  O        -14.2110   -1.3020   10.8110 O.2   194  ALA194     -0.2718
    163  CB       -13.1690   -3.0660    8.3350 C.3   194  ALA194      0.0304
    164  N        -14.6020   -3.4910   11.1960 N.am  195  GLU195     -0.1979
    165  CA       -15.7260   -3.2610   12.1060 C.3   195  GLU195      0.1602
    166  C        -15.2600   -2.7120   13.4480 C.2   195  GLU195      0.2287
    167  O        -15.9880   -1.9520   14.0770 O.2   195  GLU195     -0.2864
    168  CB       -16.5330   -4.5450   12.3220 C.3   195  GLU195      0.0415
    169  CG       -17.2420   -5.0270   11.0560 C.3   195  GLU195      0.1163
    170  CD       -17.8920   -6.4010   11.2030 C.2   195  GLU195      0.3649
    171  OE1      -18.5050   -6.8700   10.2110 O.co2 195  GLU195     -0.2457
    172  OE2      -17.7850   -7.0060   12.2990 O.co2 195  GLU195     -0.2457
    173  N        -18.5950    1.8000   -8.3960 N.3   237  HIS237     -0.1241
    174  CA       -17.6010    1.3560   -7.4310 C.3   237  HIS237      0.1621
    175  C        -16.3480    0.7380   -8.0770 C.2   237  HIS237      0.2264
    176  O        -15.2360    0.9930   -7.6170 O.2   237  HIS237     -0.2867
    177  CB       -18.2470    0.3940   -6.4250 C.3   237  HIS237      0.0745
    178  CG       -17.4020    0.1160   -5.2190 C.ar  237  HIS237      0.0817
    179  ND1      -16.7640    1.1120   -4.5100 N.ar  237  HIS237     -0.2268
    180  CD2      -17.1020   -1.0450   -4.5900 C.ar  237  HIS237      0.1154
    181  CE1      -16.0990    0.5750   -3.5020 C.ar  237  HIS237      0.1986
    182  NE2      -16.2900   -0.7320   -3.5270 N.ar  237  HIS237     -0.2212
@<TRIPOS>BOND
     1   173   174    1
     2   175   176    2
     3   175   174    1
     4   109   108    2
     5     1     2    1
     6   174   177    1
     7   100    99    2
     8     6     7    1
     9     6     8    1
    10     6     5    1
    11   108   107    1
    12   177   178    1
    13     2     5    1
    14     2     3    1
    15   107   106    1
    16   107   110    1
    17    24    23   ar
    18   113   115   ar
    19   113   111   ar
    20    99   106   am
    21    99    98    1
    22   115   116   ar
    23   178   180   ar
    24   178   179   ar
    25   110   111    1
    26     3     4    2
    27   111   112   ar
    28   105   103   am
    29    98   101    1
    30    98    97    1
    31   180   182   ar
    32    23    22    1
    33    23    25   ar
    34   179   181   ar
    35   116   114   ar
    36    22    21    1
    37   102   101    1
    38   102   103    1
    39   112   114   ar
    40   103   104    2
    41   182   181   ar
    42    21    18    1
    43    26    27    1
    44    30    31    1
    45    30    27    1
    46    89    88    2
    47    20    19    2
    48    18    19    1
    49    18    17    1
    50    17    11   am
    51    27    28    1
    52    85    83   ar
    53    85    84   ar
    54    96    95   ar
    55    96    94   ar
    56    88    87    1
    57    78    77    2
    58    95    93   ar
    59    94    92   ar
    60    83    81   ar
    61    84    82   ar
    62     9    10    1
    63    11    10    1
    64    11    12    2
    65    93    91   ar
    66    15    13    1
    67    92    91   ar
    68    28    32   am
    69    28    29    2
    70    87    86    1
    71    87    90    1
    72    91    90    1
    73    81    80   ar
    74    77    86   am
    75    77    76    1
    76    82    80   ar
    77    32    33    1
    78    10    13    1
    79    80    79    1
    80    13    14    1
    81    76    79    1
    82    76    75    1
    83    36    33    1
    84    36    37    1
    85    33    34    1
    86   126   124   ar
    87   126   127   ar
    88    34    35    2
    89   124   122   ar
    90   127   125   ar
    91    14    16    1
    92   122   121    1
    93   122   123   ar
    94   125   123   ar
    95    37    39   ar
    96    37    38   ar
    97   121   118    1
    98    39    41   ar
    99    55    54    1
   100    73    72    2
   101    38    40   ar
   102   118   117    1
   103   118   119    1
   104    41    42   ar
   105    54    52   ar
   106    54    53   ar
   107    52    50   ar
   108    72    71    1
   109    40    42   ar
   110    64    63    2
   111    42    43    1
   112   119   120    2
   113   119   128   am
   114    53    51   ar
   115   147   145    1
   116   146   145    1
   117    50    49   ar
   118   145   144    1
   119    71    70    1
   120    71    74    1
   121   128   129    1
   122    63    70   am
   123    63    62    1
   124    68    67   ar
   125    51    49   ar
   126    49    48    1
   127    62    65    1
   128    62    61    1
   129   140   141    1
   130   144   141    1
   131   129   132    1
   132   129   130    1
   133    67    69   ar
   134    67    66    1
   135   141   142    1
   136    65    66    1
   137   163   160    1
   138   132   133    1
   139   130   131    2
   140    48    45    1
   141    45    44    1
   142    45    46    1
   143   142   143    2
   144   142   148   am
   145   160   159    1
   146   160   161    1
   147   133   134   ar
   148   133   135   ar
   149    59    58    2
   150   171   170   ar
   151   134   136   ar
   152   148   149    1
   153    46    47    2
   154   161   162    2
   155   161   164   am
   156   135   137   ar
   157   169   170    1
   158   169   168    1
   159   164   165    1
   160   170   172   ar
   161    58    57    1
   162   136   138   ar
   163   149   150    1
   164   149   152    1
   165   165   168    1
   166   165   166    1
   167   150   151    2
   168   137   138   ar
   169    57    56    1
   170    57    60    1
   171   152   153    1
   172   138   139    1
   173   166   167    2
   174   153   154    1
   175   154   155    1
   176   157   156    1
   177   155   156    2
   178   156   158    1
