@<TRIPOS>MOLECULE
tmp/2px6A00.pdb
 243 239 0 0 0
SMALL
GASTEIGER

@<TRIPOS>ATOM
      1  N          3.7400  -10.5040   34.0440 N.3     2  LEU2       -0.1245
      2  CA         4.2540   -9.9960   32.7600 C.3     2  LEU2        0.1561
      3  C          3.1020   -9.9300   31.7620 C.2     2  LEU2        0.2260
      4  O          3.3050   -9.9010   30.5520 O.2     2  LEU2       -0.2867
      5  CB         5.3560  -10.9160   32.1920 C.3     2  LEU2        0.0270
      6  CG         6.5820  -11.2810   33.0450 C.3     2  LEU2        0.0019
      7  CD1        7.3190  -12.5010   32.4650 C.3     2  LEU2        0.0001
      8  CD2        7.5180  -10.1060   33.2100 C.3     2  LEU2        0.0001
      9  N          6.2460   -0.4400   32.7770 N.3    29  PRO29      -0.2102
     10  CA         7.4820   -0.7340   32.0350 C.3    29  PRO29       0.1504
     11  C          7.1060   -1.5170   30.7690 C.2    29  PRO29       0.2576
     12  O          5.9250   -1.6270   30.4650 O.2    29  PRO29      -0.2718
     13  CB         8.2820   -1.5800   33.0220 C.3    29  PRO29       0.0282
     14  CG         7.2670   -2.2210   33.9350 C.3    29  PRO29       0.0208
     15  CD         5.9540   -1.4810   33.7850 C.3    29  PRO29       0.0893
     16  N          8.0670   -2.0630   30.0310 N.am   30  ILE30      -0.1966
     17  CA         7.7190   -2.6910   28.7510 C.3    30  ILE30       0.1727
     18  C          6.6850   -3.7990   28.8740 C.2    30  ILE30       0.2616
     19  O          5.9210   -4.0210   27.9370 O.2    30  ILE30      -0.2715
     20  CB         8.9500   -3.1650   27.9020 C.3    30  ILE30       0.0290
     21  CG1        8.5550   -3.2720   26.4120 C.3    30  ILE30       0.0022
     22  CG2        9.5160   -4.4880   28.4390 C.3    30  ILE30       0.0023
     23  CD1        9.6940   -3.1590   25.4200 C.3    30  ILE30       0.0001
     24  N          6.6410   -4.4880   30.0170 N.am   31  GLU31      -0.1977
     25  CA         5.6780   -5.5960   30.1860 C.3    31  GLU31       0.1602
     26  C          4.2270   -5.1140   30.1690 C.2    31  GLU31       0.2287
     27  O          3.3140   -5.8750   29.8450 O.2    31  GLU31      -0.2864
     28  CB         5.9790   -6.4730   31.4260 C.3    31  GLU31       0.0415
     29  CG         6.7700   -5.8030   32.5450 C.3    31  GLU31       0.1163
     30  CD         8.2660   -5.8390   32.3060 C.2    31  GLU31       0.3649
     31  OE1        8.7950   -6.9440   32.0990 O.co2  31  GLU31      -0.2457
     32  OE2        8.9320   -4.7790   32.3470 O.co2  31  GLU31      -0.2457
     33  N          8.5920    4.0750   34.9720 N.3    87  TYR87      -0.1227
     34  CA         9.6190    3.0990   35.2630 C.3    87  TYR87       0.1736
     35  C         10.1740    2.5520   33.9550 C.2    87  TYR87       0.2596
     36  O          9.4610    1.9070   33.1980 O.2    87  TYR87      -0.2718
     37  CB         9.0470    1.9840   36.1450 C.3    87  TYR87       0.0548
     38  CG         9.9260    0.7680   36.3230 C.ar   87  TYR87      -0.0200
     39  CD1       11.2740    0.8890   36.6770 C.ar   87  TYR87      -0.0009
     40  CD2        9.4010   -0.5010   36.1740 C.ar   87  TYR87      -0.0009
     41  CE1       12.0700   -0.2270   36.8570 C.ar   87  TYR87       0.0417
     42  CE2       10.1900   -1.6300   36.3420 C.ar   87  TYR87       0.0417
     43  CZ        11.5260   -1.4860   36.6910 C.ar   87  TYR87       0.1957
     44  OH        12.3090   -2.6160   36.8760 O.3    87  TYR87      -0.2866
     45  N         11.3390    2.4640   33.4700 N.am   88  SER88      -0.1938
     46  CA        12.2340    1.8360   32.4890 C.3    88  SER88       0.2055
     47  C         11.6850    2.1680   31.0870 C.2    88  SER88       0.2643
     48  O         11.6890    3.3430   30.6990 O.2    88  SER88      -0.2714
     49  CB        12.2660    0.3190   32.7390 C.3    88  SER88       0.2130
     50  OG        13.1210   -0.3200   31.7680 O.3    88  SER88      -0.2179
     51  N         10.9050    1.4580   30.3770 N.am   89  TYR89      -0.1973
     52  CA        10.1940    1.8110   29.1150 C.3    89  TYR89       0.1639
     53  C          9.2370    2.9740   29.3740 C.2    89  TYR89       0.2290
     54  O          9.1510    3.8960   28.5600 O.2    89  TYR89      -0.2864
     55  CB         9.4300    0.6000   28.5760 C.3    89  TYR89       0.0560
     56  CG         8.7490    0.8120   27.2320 C.ar   89  TYR89      -0.0198
     57  CD1        9.4230    0.5450   26.0440 C.ar   89  TYR89      -0.0009
     58  CD2        7.4340    1.2630   27.1520 C.ar   89  TYR89      -0.0009
     59  CE1        8.8150    0.7180   24.8080 C.ar   89  TYR89       0.0417
     60  CE2        6.8050    1.4450   25.9070 C.ar   89  TYR89       0.0417
     61  CZ         7.5110    1.1670   24.7430 C.ar   89  TYR89       0.1957
     62  OH         6.9380    1.3480   23.5070 O.3    89  TYR89      -0.2866
     63  N         14.8500    4.6100   36.7580 N.3   115  ASP115     -0.1225
     64  CA        15.8040    3.8240   35.9940 C.3   115  ASP115      0.1805
     65  C         15.4050    3.6130   34.5200 C.2   115  ASP115      0.2598
     66  O         15.2820    2.4820   34.0460 O.2   115  ASP115     -0.2718
     67  CB        16.0730    2.4950   36.6930 C.3   115  ASP115      0.1424
     68  CG        17.4130    1.9260   36.3360 C.2   115  ASP115      0.3668
     69  OD1       18.3970    2.6860   36.3900 O.co2 115  ASP115     -0.2456
     70  OD2       17.4810    0.7290   35.9860 O.co2 115  ASP115     -0.2456
     71  N         15.1960    4.7240   33.8220 N.am  116  GLY116     -0.1957
     72  CA        15.0080    4.7410   32.3760 C.3   116  GLY116      0.1869
     73  C         15.0700    6.1820   31.9210 C.2   116  GLY116      0.2309
     74  O         15.0460    7.0890   32.7410 O.2   116  GLY116     -0.2863
     75  N         15.0030    5.8510   26.3160 N.3   119  THR119     -0.1203
     76  CA        15.6770    4.6060   25.9390 C.3   119  THR119      0.1994
     77  C         14.5580    3.5760   25.6300 C.2   119  THR119      0.2617
     78  O         13.5940    3.4430   26.3990 O.2   119  THR119     -0.2717
     79  CB        16.6370    4.1280   27.1030 C.3   119  THR119      0.1784
     80  OG1       17.6610    5.1100   27.3300 O.3   119  THR119     -0.2211
     81  CG2       17.3090    2.7920   26.7990 C.3   119  THR119      0.0376
     82  N         14.6900    2.8050   24.5510 N.am  120  TYR120     -0.1975
     83  CA        15.9570    2.5220   23.8870 C.3   120  TYR120      0.1639
     84  C         16.0330    3.1730   22.5090 C.2   120  TYR120      0.2290
     85  O         17.1030    3.2450   21.9030 O.2   120  TYR120     -0.2864
     86  CB        16.1450    0.9940   23.7870 C.3   120  TYR120      0.0560
     87  CG        15.3600    0.2000   24.8320 C.ar  120  TYR120     -0.0198
     88  CD1       13.9650    0.0730   24.7400 C.ar  120  TYR120     -0.0009
     89  CD2       16.0070   -0.4300   25.9070 C.ar  120  TYR120     -0.0009
     90  CE1       13.2380   -0.6440   25.6930 C.ar  120  TYR120      0.0417
     91  CE2       15.2830   -1.1560   26.8680 C.ar  120  TYR120      0.0417
     92  CZ        13.8980   -1.2550   26.7530 C.ar  120  TYR120      0.1957
     93  OH        13.1580   -1.9590   27.6860 O.3   120  TYR120     -0.2866
     94  N         14.3360   -9.2650   13.2420 N.3   123  ALA123     -0.1245
     95  CA        14.0700   -8.4940   14.4670 C.3   123  ALA123      0.1562
     96  C         12.7240   -8.8710   15.0940 C.2   123  ALA123      0.2260
     97  O         12.5720   -8.8820   16.3220 O.2   123  ALA123     -0.2867
     98  CB        14.1150   -6.9970   14.1700 C.3   123  ALA123      0.0290
     99  N         13.3420  -12.3610   16.6940 N.3   126  GLU126     -0.1231
    100  CA        14.1380  -12.2280   17.9230 C.3   126  GLU126      0.1699
    101  C         13.3670  -11.5740   19.0860 C.2   126  GLU126      0.2592
    102  O         13.7090  -11.7730   20.2470 O.2   126  GLU126     -0.2718
    103  CB        15.4710  -11.5040   17.6720 C.3   126  GLU126      0.0402
    104  CG        16.6010  -12.3900   17.1010 C.3   126  GLU126      0.1161
    105  CD        16.9350  -13.6390   17.9500 C.2   126  GLU126      0.3649
    106  OE1       16.7840  -13.6060   19.2050 O.co2 126  GLU126     -0.2457
    107  OE2       17.3670  -14.6580   17.3470 O.co2 126  GLU126     -0.2457
    108  N         12.3370  -10.8010   18.7630 N.am  127  ALA127     -0.1980
    109  CA        11.4810  -10.1870   19.7700 C.3   127  ALA127      0.1597
    110  C         10.5120  -11.2120   20.3730 C.2   127  ALA127      0.2287
    111  O         10.4370  -11.3630   21.5930 O.2   127  ALA127     -0.2864
    112  CB        10.7270   -9.0300   19.1730 C.3   127  ALA127      0.0319
    113  N         12.5620  -13.9270   22.1390 N.3   130  PHE130     -0.1227
    114  CA        12.9560  -13.4860   23.4790 C.3   130  PHE130      0.1736
    115  C         11.7610  -13.5580   24.4320 C.2   130  PHE130      0.2595
    116  O         11.8900  -14.0200   25.5720 O.2   130  PHE130     -0.2718
    117  CB        13.5370  -12.0610   23.4460 C.3   130  PHE130      0.0547
    118  CG        13.9390  -11.5350   24.8060 C.ar  130  PHE130     -0.0202
    119  CD1       15.1870  -11.8470   25.3500 C.ar  130  PHE130     -0.0042
    120  CD2       13.0680  -10.7400   25.5450 C.ar  130  PHE130     -0.0042
    121  CE1       15.5600  -11.3800   26.6070 C.ar  130  PHE130     -0.0003
    122  CE2       13.4280  -10.2630   26.8090 C.ar  130  PHE130     -0.0003
    123  CZ        14.6770  -10.5820   27.3420 C.ar  130  PHE130     -0.0000
    124  N         10.6040  -13.0920   23.9560 N.am  131  PHE131     -0.1976
    125  CA         9.3320  -13.2390   24.6660 C.3   131  PHE131      0.1639
    126  C          9.0630  -14.6930   25.1410 C.2   131  PHE131      0.2290
    127  O          8.8270  -14.9110   26.3220 O.2   131  PHE131     -0.2864
    128  CB         8.1780  -12.7040   23.8070 C.3   131  PHE131      0.0560
    129  CG         6.8590  -12.6950   24.5120 C.ar  131  PHE131     -0.0200
    130  CD1        6.4920  -11.6170   25.2980 C.ar  131  PHE131     -0.0042
    131  CD2        5.9930  -13.7750   24.4040 C.ar  131  PHE131     -0.0042
    132  CE1        5.2890  -11.6060   25.9670 C.ar  131  PHE131     -0.0003
    133  CE2        4.7810  -13.7780   25.0780 C.ar  131  PHE131     -0.0003
    134  CZ         4.4250  -12.6930   25.8600 C.ar  131  PHE131     -0.0000
    135  N         11.1470  -16.0010   28.0790 N.3   134  GLN134     -0.1231
    136  CA        10.8270  -15.4410   29.3870 C.3   134  GLN134      0.1698
    137  C          9.6850  -16.2020   30.0440 C.2   134  GLN134      0.2592
    138  O          9.5330  -16.1700   31.2660 O.2   134  GLN134     -0.2718
    139  CB        10.4950  -13.9470   29.2910 C.3   134  GLN134      0.0381
    140  CG        11.6140  -13.0580   28.7000 C.3   134  GLN134      0.0905
    141  CD        12.9970  -13.3350   29.2900 C.2   134  GLN134      0.2608
    142  OE1       13.2090  -13.2170   30.4990 O.2   134  GLN134     -0.2717
    143  NE2       13.9480  -13.7020   28.4290 N.am  134  GLN134     -0.0878
    144  N          8.8980  -16.9000   29.2270 N.am  135  PHE135     -0.1976
    145  CA         7.7370  -17.6490   29.7110 C.3   135  PHE135      0.1639
    146  C          7.9610  -19.1530   29.8020 C.2   135  PHE135      0.2290
    147  O          7.1880  -19.8550   30.4520 O.2   135  PHE135     -0.2864
    148  CB         6.5130  -17.3500   28.8430 C.3   135  PHE135      0.0560
    149  CG         5.8320  -16.0490   29.1790 C.ar  135  PHE135     -0.0200
    150  CD1        6.2040  -14.8680   28.5390 C.ar  135  PHE135     -0.0042
    151  CD2        4.8310  -16.0060   30.1460 C.ar  135  PHE135     -0.0042
    152  CE1        5.5820  -13.6610   28.8490 C.ar  135  PHE135     -0.0003
    153  CE2        4.1980  -14.8130   30.4600 C.ar  135  PHE135     -0.0003
    154  CZ         4.5750  -13.6310   29.8050 C.ar  135  PHE135     -0.0000
    155  N          0.1440   -9.8770   24.6480 N.3   179  ALA179     -0.1245
    156  CA         1.4490   -9.5650   25.2340 C.3   179  ALA179      0.1562
    157  C          2.6020   -9.8040   24.2570 C.2   179  ALA179      0.2260
    158  O          3.5290   -8.9870   24.1610 O.2   179  ALA179     -0.2867
    159  CB         1.6470  -10.3600   26.5300 C.3   179  ALA179      0.0290
    160  N          4.4150   -6.4630   22.5780 N.3   183  PHE183     -0.1227
    161  CA         5.8390   -6.3950   22.8700 C.3   183  PHE183      0.1736
    162  C          6.5970   -5.9690   21.6120 C.2   183  PHE183      0.2595
    163  O          7.3280   -4.9740   21.6140 O.2   183  PHE183     -0.2718
    164  CB         6.3210   -7.7500   23.4040 C.3   183  PHE183      0.0547
    165  CG         7.7660   -7.7840   23.7740 C.ar  183  PHE183     -0.0202
    166  CD1        8.6030   -8.7450   23.2260 C.ar  183  PHE183     -0.0042
    167  CD2        8.2910   -6.8730   24.6690 C.ar  183  PHE183     -0.0042
    168  CE1        9.9440   -8.7970   23.5570 C.ar  183  PHE183     -0.0003
    169  CE2        9.6440   -6.9160   25.0080 C.ar  183  PHE183     -0.0003
    170  CZ        10.4620   -7.8770   24.4520 C.ar  183  PHE183     -0.0000
    171  N          6.3850   -6.6790   20.5180 N.am  184  TYR184     -0.1976
    172  CA         6.9380   -6.2420   19.2480 C.3   184  TYR184      0.1639
    173  C          6.6280   -4.7580   18.9400 C.2   184  TYR184      0.2290
    174  O          7.5290   -3.9900   18.5990 O.2   184  TYR184     -0.2864
    175  CB         6.4900   -7.1580   18.1100 C.3   184  TYR184      0.0560
    176  CG         6.7810   -6.5580   16.7470 C.ar  184  TYR184     -0.0198
    177  CD1        8.0440   -6.6640   16.1570 C.ar  184  TYR184     -0.0009
    178  CD2        5.7870   -5.8640   16.0580 C.ar  184  TYR184     -0.0009
    179  CE1        8.2890   -6.0850   14.8920 C.ar  184  TYR184      0.0417
    180  CE2        6.0220   -5.2930   14.8210 C.ar  184  TYR184      0.0417
    181  CZ         7.2590   -5.4030   14.2470 C.ar  184  TYR184      0.1957
    182  OH         7.4360   -4.8320   13.0150 O.3   184  TYR184     -0.2866
    183  N          8.5680   -2.2290   21.0930 N.3   187  LEU187     -0.1231
    184  CA         9.9720   -2.1650   20.6660 C.3   187  LEU187      0.1693
    185  C         10.1210   -1.2970   19.4280 C.2   187  LEU187      0.2591
    186  O         10.9930   -0.4220   19.3810 O.2   187  LEU187     -0.2718
    187  CB        10.5180   -3.5730   20.4020 C.3   187  LEU187      0.0284
    188  CG        10.6920   -4.5400   21.5840 C.3   187  LEU187      0.0019
    189  CD1       10.9180   -5.9560   21.0560 C.3   187  LEU187      0.0001
    190  CD2       11.8430   -4.1240   22.4750 C.3   187  LEU187      0.0001
    191  N          9.2570   -1.5500   18.4410 N.am  188  ARG188     -0.1980
    192  CA         9.1490   -0.7630   17.2150 C.3   188  ARG188      0.1597
    193  C          8.9060    0.7190   17.5120 C.2   188  ARG188      0.2287
    194  O          9.6320    1.5770   17.0100 O.2   188  ARG188     -0.2864
    195  CB         8.0390   -1.3180   16.2920 C.3   188  ARG188      0.0334
    196  CG         7.7770   -0.4560   15.0570 C.3   188  ARG188      0.0492
    197  CD         6.4600   -0.7760   14.3850 C.3   188  ARG188      0.2205
    198  NE         5.7200    0.4350   13.9660 N.pl3 188  ARG188     -0.0865
    199  CZ         5.6000    0.7940   12.6980 C.cat 188  ARG188      0.5346
    200  NH1        6.1610    0.0450   11.7810 N.pl3 188  ARG188      0.1354
    201  NH2        4.9330    1.8660   12.3280 N.pl3 188  ARG188      0.1354
    202  N         12.0620    2.2170   19.0110 N.3   191  GLU191     -0.1245
    203  CA        13.0860    2.2980   17.9590 C.3   191  GLU191      0.1567
    204  C         12.8590    3.4760   17.0000 C.2   191  GLU191      0.2260
    205  O         13.8160    4.0650   16.4900 O.2   191  GLU191     -0.2867
    206  CB        13.1560    0.9450   17.2180 C.3   191  GLU191      0.0388
    207  CG        13.2390    0.9890   15.6810 C.3   191  GLU191      0.1160
    208  CD        12.5610   -0.2180   15.0190 C.2   191  GLU191      0.3649
    209  OE1       12.6410   -1.3260   15.6070 O.co2 191  GLU191     -0.2457
    210  OE2       11.9520   -0.0610   13.9130 O.co2 191  GLU191     -0.2457
    211  N         21.6400    9.4070   32.0030 N.3   214  TYR214     -0.1241
    212  CA        21.0950    8.5920   30.9000 C.3   214  TYR214      0.1605
    213  C         20.8510    9.4040   29.6180 C.2   214  TYR214      0.2264
    214  O         19.8650    9.1840   28.9080 O.2   214  TYR214     -0.2867
    215  CB        19.8100    7.8440   31.3130 C.3   214  TYR214      0.0534
    216  CG        19.9750    6.6610   32.2540 C.ar  214  TYR214     -0.0201
    217  CD1       18.9140    6.2440   33.0570 C.ar  214  TYR214     -0.0009
    218  CD2       21.1800    5.9570   32.3420 C.ar  214  TYR214     -0.0009
    219  CE1       19.0400    5.1670   33.9200 C.ar  214  TYR214      0.0417
    220  CE2       21.3140    4.8710   33.2080 C.ar  214  TYR214      0.0417
    221  CZ        20.2370    4.4870   33.9920 C.ar  214  TYR214      0.1957
    222  OH        20.3590    3.4200   34.8500 O.3   214  TYR214     -0.2866
    223  N         18.2100   -2.7660   38.4820 N.3   233  HIS233     -0.1226
    224  CA        17.1140   -2.3040   37.6280 C.3   233  HIS233      0.1752
    225  C         15.7160   -2.7350   38.0920 C.2   233  HIS233      0.2595
    226  O         14.7390   -2.0420   37.8300 O.2   233  HIS233     -0.2718
    227  CB        17.3580   -2.7280   36.1760 C.3   233  HIS233      0.0759
    228  CG        16.2520   -2.3480   35.2450 C.ar  233  HIS233      0.0818
    229  ND1       16.0630   -1.0550   34.8080 N.ar  233  HIS233     -0.2268
    230  CD2       15.2620   -3.0850   34.6880 C.ar  233  HIS233      0.1154
    231  CE1       15.0090   -1.0140   34.0150 C.ar  233  HIS233      0.1986
    232  NE2       14.5030   -2.2310   33.9280 N.ar  233  HIS233     -0.2212
    233  N         15.6310   -3.8690   38.7800 N.am  234  ARG234     -0.1980
    234  CA        14.3650   -4.3870   39.3100 C.3   234  ARG234      0.1597
    235  C         14.0840   -3.9680   40.7610 C.2   234  ARG234      0.2287
    236  O         12.9620   -3.5740   41.0980 O.2   234  ARG234     -0.2864
    237  CB        14.3510   -5.9130   39.2340 C.3   234  ARG234      0.0334
    238  CG        13.9290   -6.5050   37.8980 C.3   234  ARG234      0.0492
    239  CD        13.8900   -8.0330   37.9900 C.3   234  ARG234      0.2205
    240  NE        12.8810   -8.6140   37.1050 N.pl3 234  ARG234     -0.0865
    241  CZ        12.3530   -9.8320   37.2530 C.cat 234  ARG234      0.5346
    242  NH1       12.7340  -10.6190   38.2580 N.pl3 234  ARG234      0.1354
    243  NH2       11.4340  -10.2680   36.3930 N.pl3 234  ARG234      0.1354
@<TRIPOS>BOND
     1   200   199    1
     2   201   199    1
     3   199   198    2
     4   182   181    1
     5    94    95    1
     6   210   208   ar
     7   198   197    1
     8    98    95    1
     9   181   180   ar
    10   181   179   ar
    11   197   196    1
    12    95    96    1
    13   180   178   ar
    14   179   177   ar
    15   208   209   ar
    16   208   207    1
    17   196   195    1
    18    96    97    2
    19   207   206    1
    20   178   176   ar
    21   177   176   ar
    22   195   192    1
    23   205   204    2
    24    99   100    1
    25   176   175    1
    26   204   203    1
    27   194   193    2
    28   104   103    1
    29   104   105    1
    30   192   193    1
    31   192   191    1
    32   206   203    1
    33   107   105   ar
    34   103   100    1
    35   100   101    1
    36   105   106   ar
    37   203   202    1
    38   175   172    1
    39   191   185   am
    40   174   173    2
    41   108   101   am
    42   108   109    1
    43   173   172    1
    44   101   102    2
    45   112   109    1
    46   172   171    1
    47   186   185    2
    48   185   184    1
    49   109   110    1
    50   110   111    2
    51   187   184    1
    52   187   188    1
    53   171   162   am
    54   184   183    1
    55   189   188    1
    56   188   190    1
    57   162   163    2
    58   162   161    1
    59    85    84    2
    60   113   114    1
    61    84    83    1
    62   160   161    1
    63   161   164    1
    64   166   168   ar
    65   166   165   ar
    66   164   165    1
    67   117   114    1
    68   117   118    1
    69   114   115    1
    70    62    61    1
    71   168   170   ar
    72   165   167   ar
    73    86    83    1
    74    86    87    1
    75   128   129    1
    76   128   125    1
    77    83    82    1
    78   124   115   am
    79   124   125    1
    80   158   157    2
    81   157   156    1
    82   131   129   ar
    83   131   133   ar
    84   115   116    2
    85   170   169   ar
    86   129   130   ar
    87    82    77   am
    88   155   156    1
    89   125   126    1
    90   167   169   ar
    91    88    87   ar
    92    88    90   ar
    93    61    59   ar
    94    61    60   ar
    95   118   119   ar
    96   118   120   ar
    97    59    57   ar
    98    87    89   ar
    99   133   134   ar
   100   126   127    2
   101   156   159    1
   102   130   132   ar
   103   119   121   ar
   104    23    21    1
   105   120   122   ar
   106    77    76    1
   107    77    78    2
   108    90    92   ar
   109   134   132   ar
   110    60    58   ar
   111    89    91   ar
   112    76    75    1
   113    76    79    1
   114    57    56   ar
   115    21    20    1
   116   121   123   ar
   117    92    91   ar
   118    92    93    1
   119    81    79    1
   120   122   123   ar
   121    79    80    1
   122    58    56   ar
   123    56    55    1
   124    20    22    1
   125    20    17    1
   126    19    18    2
   127   135   136    1
   128   143   141   am
   129   150   152   ar
   130   150   149   ar
   131    54    53    2
   132    55    52    1
   133   140   141    1
   134   140   139    1
   135    17    18    1
   136    17    16    1
   137   148   149    1
   138   148   145    1
   139   152   154   ar
   140    18    24   am
   141   214   213    2
   142    52    53    1
   143    52    51    1
   144   149   151   ar
   145   144   145    1
   146   144   137   am
   147   141   142    2
   148   139   136    1
   149   136   137    1
   150   213   212    1
   151   145   146    1
   152   146   147    2
   153   154   153   ar
   154    27    26    2
   155    24    25    1
   156    16    11   am
   157   137   138    2
   158   151   153   ar
   159    26    25    1
   160    25    28    1
   161    51    47   am
   162    12    11    2
   163     4     3    2
   164    48    47    2
   165    11    10    1
   166   212   215    1
   167   212   211    1
   168    47    46    1
   169   215   216    1
   170    28    29    1
   171     3     2    1
   172    50    49    1
   173    73    72    1
   174    73    74    2
   175    10     9    1
   176    10    13    1
   177    31    30   ar
   178     5     2    1
   179     5     6    1
   180   216   218   ar
   181   216   217   ar
   182    30    32   ar
   183    30    29    1
   184   218   220   ar
   185    72    71    1
   186     7     6    1
   187    46    49    1
   188    46    45    1
   189     2     1    1
   190     9    15    1
   191    13    14    1
   192     6     8    1
   193   217   219   ar
   194    36    35    2
   195   220   221   ar
   196    45    35   am
   197    15    14    1
   198    71    65   am
   199   219   221   ar
   200   232   231   ar
   201   232   230   ar
   202    35    34    1
   203   221   222    1
   204   231   229   ar
   205    66    65    2
   206    65    64    1
   207   230   228   ar
   208   229   228   ar
   209    33    34    1
   210   228   227    1
   211    34    37    1
   212    70    68   ar
   213    64    67    1
   214    64    63    1
   215    37    38    1
   216    40    38   ar
   217    40    42   ar
   218   227   224    1
   219    38    39   ar
   220    68    69   ar
   221    68    67    1
   222    42    43   ar
   223   243   241    1
   224    39    41   ar
   225    43    41   ar
   226    43    44    1
   227   240   241    2
   228   240   239    1
   229   241   242    1
   230   224   225    1
   231   224   223    1
   232   226   225    2
   233   238   239    1
   234   238   237    1
   235   225   233   am
   236   233   234    1
   237   237   234    1
   238   234   235    1
   239   235   236    2
