@<TRIPOS>MOLECULE
tmp/2px6A01.pdb
 90 87 0 0 0
SMALL
GASTEIGER

@<TRIPOS>ATOM
      1  N         -5.5130   -3.2360   25.1240 N.3    55  ARG55      -0.1245
      2  CA        -5.8650   -3.2820   23.7230 C.3    55  ARG55       0.1563
      3  C         -6.2850   -1.8910   23.2030 C.2    55  ARG55       0.2260
      4  O         -6.2340   -1.6300   22.0040 O.2    55  ARG55      -0.2867
      5  CB        -6.9550   -4.3300   23.4880 C.3    55  ARG55       0.0307
      6  CG        -6.8370   -5.0160   22.1530 C.3    55  ARG55       0.0489
      7  CD        -8.0600   -5.8850   21.8420 C.3    55  ARG55       0.2205
      8  NE        -8.2170   -7.0700   22.7040 N.pl3  55  ARG55      -0.0865
      9  CZ        -7.4670   -8.1680   22.6260 C.cat  55  ARG55       0.5346
     10  NH1       -6.4650   -8.2350   21.7480 N.pl3  55  ARG55       0.1354
     11  NH2       -7.7160   -9.2020   23.4270 N.pl3  55  ARG55       0.1354
     12  N         -4.6870    0.9160   24.0400 N.3    57  ALA57      -0.1231
     13  CA        -3.4980    1.7420   23.8210 C.3    57  ALA57       0.1679
     14  C         -3.0540    1.7390   22.3490 C.2    57  ALA57       0.2434
     15  O         -2.8540    0.6760   21.7680 O.2    57  ALA57      -0.2733
     16  CB        -2.3690    1.2880   24.7310 C.3    57  ALA57       0.0304
     17  N         -2.9020    2.9340   21.7440 N.am   58  PRO58      -0.2718
     18  CA        -2.2980    2.9950   20.4090 C.3    58  PRO58       0.1535
     19  C         -0.7740    2.8150   20.4540 C.2    58  PRO58       0.2598
     20  O         -0.0550    3.7520   20.8030 O.2    58  PRO58      -0.2715
     21  CB        -2.6530    4.4060   19.9140 C.3    58  PRO58       0.0310
     22  CG        -2.9200    5.2110   21.1690 C.3    58  PRO58       0.0237
     23  CD        -3.2750    4.2660   22.2720 C.3    58  PRO58       0.0939
     24  N         -0.2960    1.6270   20.0690 N.am   59  LEU59      -0.1964
     25  CA         1.1420    1.3180   20.0520 C.3    59  LEU59       0.1728
     26  C          1.8140    1.5580   18.6870 C.2    59  LEU59       0.2616
     27  O          2.8590    0.9710   18.3620 O.2    59  LEU59      -0.2715
     28  CB         1.3890   -0.1260   20.5550 C.3    59  LEU59       0.0311
     29  CG         1.1500   -0.4230   22.0480 C.3    59  LEU59       0.0022
     30  CD1        1.3070   -1.9320   22.3730 C.3    59  LEU59       0.0001
     31  CD2        2.0310    0.4400   22.9700 C.3    59  LEU59       0.0001
     32  N          1.2360    2.4380   17.8790 N.am   60  ASP60      -0.1971
     33  CA         1.8610    2.7670   16.5960 C.3    60  ASP60       0.1709
     34  C          3.1280    3.6010   16.7930 C.2    60  ASP60       0.2293
     35  O          4.0210    3.5780   15.9470 O.2    60  ASP60      -0.2864
     36  CB         0.8890    3.4840   15.6700 C.3    60  ASP60       0.1436
     37  CG         0.2830    4.7390   16.3080 C.2    60  ASP60       0.3671
     38  OD1        0.7300    5.8450   16.0050 O.co2  60  ASP60      -0.2456
     39  OD2       -0.6340    4.6170   17.1290 O.co2  60  ASP60      -0.2456
     40  N         -2.0070  -10.9650   23.2200 N.3   178  PHE178     -0.1241
     41  CA        -1.8490   -9.5240   23.3020 C.3   178  PHE178      0.1605
     42  C         -0.4290   -9.1350   23.6940 C.2   178  PHE178      0.2264
     43  O          0.1320   -8.1940   23.1310 O.2   178  PHE178     -0.2867
     44  CB        -2.8450   -8.9000   24.2860 C.3   178  PHE178      0.0534
     45  CG        -2.6250   -7.4260   24.4910 C.ar  178  PHE178     -0.0203
     46  CD1       -2.8360   -6.5320   23.4510 C.ar  178  PHE178     -0.0042
     47  CD2       -2.1750   -6.9400   25.6990 C.ar  178  PHE178     -0.0042
     48  CE1       -2.6210   -5.1790   23.6220 C.ar  178  PHE178     -0.0003
     49  CE2       -1.9540   -5.5820   25.8730 C.ar  178  PHE178     -0.0003
     50  CZ        -2.1740   -4.7090   24.8200 C.ar  178  PHE178     -0.0000
     51  N          2.2900   -9.8900   20.9060 N.3   181  ARG181     -0.1231
     52  CA         2.0700   -8.9080   19.8560 C.3   181  ARG181      0.1694
     53  C          2.4490   -7.4720   20.2410 C.2   181  ARG181      0.2592
     54  O          3.1740   -6.7990   19.5070 O.2   181  ARG181     -0.2718
     55  CB         0.6070   -8.9740   19.4190 C.3   181  ARG181      0.0321
     56  CG         0.2070   -7.9580   18.3710 C.3   181  ARG181      0.0489
     57  CD        -1.0470   -8.3720   17.6350 C.3   181  ARG181      0.2205
     58  NE        -2.1770   -8.5790   18.5260 N.pl3 181  ARG181     -0.0865
     59  CZ        -2.8470   -9.7180   18.6650 C.cat 181  ARG181      0.5346
     60  NH1       -2.5290  -10.8040   17.9590 N.pl3 181  ARG181      0.1354
     61  NH2       -3.8670   -9.7490   19.5040 N.pl3 181  ARG181      0.1354
     62  N          1.9420   -6.9980   21.3710 N.am  182  SER182     -0.1952
     63  CA         2.2400   -5.6460   21.8210 C.3   182  SER182      0.1924
     64  C          3.7290   -5.4120   22.1390 C.2   182  SER182      0.2314
     65  O          4.2400   -4.2930   21.9960 O.2   182  SER182     -0.2863
     66  CB         1.3670   -5.2890   23.0170 C.3   182  SER182      0.2116
     67  OG         1.8180   -5.9420   24.1700 O.3   182  SER182     -0.2180
     68  N          5.3690   -4.3460   19.0710 N.3   185  TYR185     -0.1241
     69  CA         4.9850   -2.9510   18.7700 C.3   185  TYR185      0.1605
     70  C          5.5950   -1.9030   19.7010 C.2   185  TYR185      0.2264
     71  O          5.8730   -0.7800   19.2780 O.2   185  TYR185     -0.2867
     72  CB         3.4620   -2.7960   18.7070 C.3   185  TYR185      0.0534
     73  CG         2.8870   -3.4200   17.4700 C.ar  185  TYR185     -0.0201
     74  CD1        2.1820   -4.6080   17.5390 C.ar  185  TYR185     -0.0009
     75  CD2        3.0860   -2.8390   16.2210 C.ar  185  TYR185     -0.0009
     76  CE1        1.6650   -5.2010   16.3830 C.ar  185  TYR185      0.0417
     77  CE2        2.5850   -3.4190   15.0570 C.ar  185  TYR185      0.0417
     78  CZ         1.8800   -4.6040   15.1430 C.ar  185  TYR185      0.1957
     79  OH         1.3660   -5.1910   14.0080 O.3   185  TYR185     -0.2866
     80  N          9.2570   -1.5500   18.4410 N.3   188  ARG188     -0.1245
     81  CA         9.1490   -0.7630   17.2150 C.3   188  ARG188      0.1563
     82  C          8.9060    0.7190   17.5120 C.2   188  ARG188      0.2260
     83  O          9.6320    1.5770   17.0100 O.2   188  ARG188     -0.2867
     84  CB         8.0390   -1.3180   16.2920 C.3   188  ARG188      0.0307
     85  CG         7.7770   -0.4560   15.0570 C.3   188  ARG188      0.0489
     86  CD         6.4600   -0.7760   14.3850 C.3   188  ARG188      0.2205
     87  NE         5.7200    0.4350   13.9660 N.pl3 188  ARG188     -0.0865
     88  CZ         5.6000    0.7940   12.6980 C.cat 188  ARG188      0.5346
     89  NH1        6.1610    0.0450   11.7810 N.pl3 188  ARG188      0.1354
     90  NH2        4.9330    1.8660   12.3280 N.pl3 188  ARG188      0.1354
@<TRIPOS>BOND
     1    89    88    1
     2    90    88    1
     3    88    87    2
     4    87    86    1
     5    79    78    1
     6    86    85    1
     7    77    78   ar
     8    77    75   ar
     9    85    84    1
    10    78    76   ar
    11    36    37    1
    12    36    33    1
    13    35    34    2
    14    38    37   ar
    15    75    73   ar
    16    84    81    1
    17    37    39   ar
    18    76    74   ar
    19    33    34    1
    20    33    32    1
    21    83    82    2
    22    81    82    1
    23    81    80    1
    24    73    74   ar
    25    73    72    1
    26    57    56    1
    27    57    58    1
    28    32    26   am
    29    60    59    1
    30    27    26    2
    31    56    55    1
    32    58    59    2
    33    59    61    1
    34    26    25    1
    35    72    69    1
    36    69    68    1
    37    69    70    1
    38    71    70    2
    39    55    52    1
    40    54    53    2
    41    52    53    1
    42    52    51    1
    43    21    18    1
    44    21    22    1
    45    25    24    1
    46    25    28    1
    47    24    19   am
    48    53    62   am
    49    18    19    1
    50    18    17    1
    51    19    20    2
    52    28    29    1
    53    22    23    1
    54    62    63    1
    55    17    23    1
    56    17    14   am
    57    10     9    1
    58    15    14    2
    59    63    64    1
    60    63    66    1
    61     7     6    1
    62     7     8    1
    63    65    64    2
    64     4     3    2
    65    29    30    1
    66    29    31    1
    67     6     5    1
    68    14    13    1
    69     9     8    2
    70     9    11    1
    71    66    67    1
    72    43    42    2
    73     3     2    1
    74    40    41    1
    75    41    42    1
    76    41    44    1
    77    46    48   ar
    78    46    45   ar
    79     5     2    1
    80    48    50   ar
    81     2     1    1
    82    13    12    1
    83    13    16    1
    84    44    45    1
    85    45    47   ar
    86    50    49   ar
    87    47    49   ar
