@<TRIPOS>MOLECULE
tmp/2pxaA00.pdb
 123 118 0 0 0
SMALL
GASTEIGER

@<TRIPOS>ATOM
      1  N         18.5310  -20.3090   29.0680 N.3     8  LYS8       -0.1245
      2  CA        18.1550  -19.4890   27.9250 C.3     8  LYS8        0.1561
      3  C         19.3270  -19.2360   26.9770 C.2     8  LYS8        0.2260
      4  O         19.2260  -19.5260   25.7860 O.2     8  LYS8       -0.2867
      5  CB        17.5730  -18.1470   28.3950 C.3     8  LYS8        0.0271
      6  CG        17.0690  -17.2380   27.2610 C.3     8  LYS8        0.0035
      7  CD        15.9470  -17.8850   26.4590 C.3     8  LYS8        0.0206
      8  CE        15.0160  -16.8320   25.8590 C.3     8  LYS8        0.1093
      9  NZ        13.9850  -17.3980   24.9460 N.3     8  LYS8       -0.1314
     10  N         20.2150  -22.2790   25.3050 N.3    11  LEU11      -0.1231
     11  CA        19.2380  -22.6140   24.2750 C.3    11  LEU11       0.1693
     12  C         19.5700  -21.8930   22.9610 C.2    11  LEU11       0.2592
     13  O         19.5600  -22.5080   21.8860 O.2    11  LEU11      -0.2718
     14  CB        17.8160  -22.2900   24.7330 C.3    11  LEU11       0.0284
     15  CG        16.6980  -22.5480   23.7130 C.3    11  LEU11       0.0019
     16  CD1       16.4790  -24.0650   23.5090 C.3    11  LEU11       0.0001
     17  CD2       15.4260  -21.8310   24.1320 C.3    11  LEU11       0.0001
     18  N         19.9100  -20.6090   23.0630 N.am   12  ASN12      -0.1974
     19  CA        20.1930  -19.7750   21.8910 C.3    12  ASN12       0.1688
     20  C         21.4930  -20.0700   21.1590 C.2    12  ASN12       0.2292
     21  O         21.6320  -19.6620   20.0060 O.2    12  ASN12      -0.2864
     22  CB        20.2130  -18.2990   22.2830 C.3    12  ASN12       0.1181
     23  CG        18.8530  -17.7810   22.6620 C.2    12  ASN12       0.2629
     24  OD1       18.7250  -17.0040   23.6130 O.2    12  ASN12      -0.2716
     25  ND2       17.8260  -18.1890   21.9140 N.am   12  ASN12      -0.0877
     26  N         22.5720  -23.0920   20.5410 N.3    14  MET14      -0.1230
     27  CA        22.3720  -24.3580   19.8370 C.3    14  MET14       0.1702
     28  C         22.1830  -24.1190   18.3510 C.2    14  MET14       0.2593
     29  O         21.6770  -23.0750   17.9340 O.2    14  MET14      -0.2718
     30  CB        21.1270  -25.1010   20.3360 C.3    14  MET14       0.0401
     31  CG        21.1740  -25.5570   21.7560 C.3    14  MET14       0.0596
     32  SD        19.6740  -26.4840   22.1710 S.3    14  MET14      -0.1393
     33  CE        20.1220  -28.1050   21.6070 C.3    14  MET14       0.0692
     34  N         22.5950  -25.1060   17.5630 N.am   15  GLY15      -0.1942
     35  CA        22.3140  -25.1300   16.1370 C.3    15  GLY15       0.2014
     36  C         20.8740  -25.5150   15.9090 C.2    15  GLY15       0.2638
     37  O         20.1530  -25.8320   16.8580 O.2    15  GLY15      -0.2714
     38  N         20.4640  -25.4930   14.6460 N.am   16  LYS16      -0.1977
     39  CA        19.0950  -25.8090   14.2730 C.3    16  LYS16       0.1596
     40  C         18.8050  -27.2950   14.4800 C.2    16  LYS16       0.2287
     41  O         17.7730  -27.6530   15.0450 O.2    16  LYS16      -0.2864
     42  CB        18.8090  -25.3970   12.8210 C.3    16  LYS16       0.0298
     43  CG        18.8820  -23.8760   12.5700 C.3    16  LYS16       0.0038
     44  CD        18.2160  -23.4330   11.2550 C.3    16  LYS16       0.0206
     45  CE        18.8330  -24.0870   10.0190 C.3    16  LYS16       0.1093
     46  NZ        20.2530  -23.7250    9.8150 N.3    16  LYS16      -0.1314
     47  N         18.5920  -27.9280   18.1680 N.3    19  PHE19      -0.1227
     48  CA        17.4650  -27.1910   18.7480 C.3    19  PHE19       0.1736
     49  C         16.1590  -27.9570   18.5560 C.2    19  PHE19       0.2595
     50  O         15.3690  -28.1040   19.4880 O.2    19  PHE19      -0.2718
     51  CB        17.3310  -25.8000   18.1320 C.3    19  PHE19       0.0547
     52  CG        16.0550  -25.0920   18.5200 C.ar   19  PHE19      -0.0202
     53  CD1       15.9010  -24.5690   19.7910 C.ar   19  PHE19      -0.0042
     54  CD2       15.0120  -24.9590   17.6150 C.ar   19  PHE19      -0.0042
     55  CE1       14.7410  -23.9330   20.1550 C.ar   19  PHE19      -0.0003
     56  CE2       13.8380  -24.3130   17.9670 C.ar   19  PHE19      -0.0003
     57  CZ        13.6970  -23.8030   19.2310 C.ar   19  PHE19      -0.0000
     58  N         15.9410  -28.4410   17.3390 N.am   20  PHE20      -0.1976
     59  CA        14.7080  -29.1330   17.0100 C.3    20  PHE20       0.1639
     60  C         14.5920  -30.4660   17.7400 C.2    20  PHE20       0.2290
     61  O         13.5220  -30.7650   18.2930 O.2    20  PHE20      -0.2864
     62  CB        14.5500  -29.2850   15.4920 C.3    20  PHE20       0.0560
     63  CG        14.2900  -27.9720   14.7800 C.ar   20  PHE20      -0.0200
     64  CD1       15.0170  -27.6190   13.6490 C.ar   20  PHE20      -0.0042
     65  CD2       13.3230  -27.0820   15.2530 C.ar   20  PHE20      -0.0042
     66  CE1       14.7820  -26.4130   12.9940 C.ar   20  PHE20      -0.0003
     67  CE2       13.0890  -25.8710   14.6090 C.ar   20  PHE20      -0.0003
     68  CZ        13.8150  -25.5370   13.4770 C.ar   20  PHE20      -0.0000
     69  N         14.0180  -29.4420   21.7100 N.3    23  ARG23      -0.1245
     70  CA        12.8020  -28.8180   22.2330 C.3    23  ARG23       0.1563
     71  C         11.6440  -29.8000   22.5350 C.2    23  ARG23       0.2260
     72  O         10.7500  -29.4840   23.3130 O.2    23  ARG23      -0.2867
     73  CB        12.3460  -27.6680   21.3370 C.3    23  ARG23       0.0307
     74  CG        11.6780  -28.0440   20.0490 C.3    23  ARG23       0.0489
     75  CD        11.1570  -26.7670   19.4040 C.3    23  ARG23       0.2205
     76  NE        10.6470  -26.9690   18.0570 N.pl3  23  ARG23      -0.0865
     77  CZ        10.0920  -26.0160   17.3130 C.cat  23  ARG23       0.5346
     78  NH1        9.9650  -24.7760   17.7870 N.pl3  23  ARG23       0.1354
     79  NH2        9.6550  -26.3070   16.0880 N.pl3  23  ARG23       0.1354
     80  N          7.1680  -15.3160   22.9220 N.3   145  SER145     -0.1202
     81  CA         8.5600  -15.6350   23.1540 C.3   145  SER145      0.2020
     82  C          9.4580  -14.6460   22.4140 C.2   145  SER145      0.2619
     83  O          9.0390  -13.9860   21.4690 O.2   145  SER145     -0.2717
     84  CB         8.8620  -17.0520   22.6970 C.3   145  SER145      0.2103
     85  OG         8.6700  -17.1580   21.2970 O.3   145  SER145     -0.2182
     86  N         10.6870  -14.5340   22.8880 N.am  146  SER146     -0.1938
     87  CA        11.7300  -13.7990   22.2080 C.3   146  SER146      0.2040
     88  C         13.0430  -14.4470   22.6070 C.2   146  SER146      0.2485
     89  O         13.1620  -14.9520   23.7270 O.2   146  SER146     -0.2729
     90  CB        11.7120  -12.3340   22.6220 C.3   146  SER146      0.2129
     91  OG        12.9300  -11.6810   22.2960 O.3   146  SER146     -0.2179
     92  N         14.0330  -14.4600   21.6930 N.am  147  PRO147     -0.2726
     93  CA        15.3660  -14.9290   22.0950 C.3   147  PRO147      0.1402
     94  C         15.9840  -14.1350   23.2560 C.2   147  PRO147      0.2269
     95  O         16.8530  -14.6530   23.9610 O.2   147  PRO147     -0.2865
     96  CB        16.1890  -14.7710   20.8110 C.3   147  PRO147      0.0296
     97  CG        15.1840  -14.8110   19.7210 C.3   147  PRO147      0.0237
     98  CD        13.9980  -14.0990   20.2620 C.3   147  PRO147      0.0939
     99  N          7.0530  -27.2140   25.5620 N.3   208  ARG208     -0.1245
    100  CA         8.2870  -27.6110   24.8910 C.3   208  ARG208      0.1563
    101  C          9.5100  -27.0990   25.6590 C.2   208  ARG208      0.2260
    102  O          9.4300  -26.0880   26.3450 O.2   208  ARG208     -0.2867
    103  CB         8.2840  -27.0950   23.4490 C.3   208  ARG208      0.0307
    104  CG         7.0330  -27.4690   22.6980 C.3   208  ARG208      0.0489
    105  CD         7.2580  -27.8900   21.2530 C.3   208  ARG208      0.2205
    106  NE         6.0700  -27.5930   20.4330 N.pl3 208  ARG208     -0.0865
    107  CZ         4.9310  -28.2940   20.4260 C.cat 208  ARG208      0.5346
    108  NH1        4.7670  -29.3660   21.1950 N.pl3 208  ARG208      0.1354
    109  NH2        3.9410  -27.9190   19.6290 N.pl3 208  ARG208      0.1354
    110  N         12.0380  -25.6290   24.6320 N.3   210  SER210     -0.1202
    111  CA        12.5010  -24.3670   24.0680 C.3   210  SER210      0.2020
    112  C         11.8520  -23.1610   24.7740 C.2   210  SER210      0.2618
    113  O         12.1640  -21.9950   24.4630 O.2   210  SER210     -0.2717
    114  CB        12.1860  -24.3310   22.5700 C.3   210  SER210      0.2103
    115  OG        10.8180  -24.6220   22.3320 O.3   210  SER210     -0.2182
    116  N         10.9470  -23.4380   25.7140 N.am  211  ASN211     -0.1974
    117  CA        10.3390  -22.3810   26.5130 C.3   211  ASN211      0.1688
    118  C         10.2610  -22.7610   27.9940 C.2   211  ASN211      0.2292
    119  O         10.2790  -23.9450   28.3470 O.2   211  ASN211     -0.2864
    120  CB         8.9770  -21.9650   25.9380 C.3   211  ASN211      0.1181
    121  CG         7.8840  -22.9550   26.2330 C.2   211  ASN211      0.2629
    122  OD1        7.4810  -23.1370   27.3880 O.2   211  ASN211     -0.2716
    123  ND2        7.3630  -23.5860   25.1810 N.am  211  ASN211     -0.0877
@<TRIPOS>BOND
     1    46    45    1
     2    45    44    1
     3    44    43    1
     4    43    42    1
     5    42    39    1
     6    66    68   ar
     7    66    64   ar
     8    68    67   ar
     9    64    63   ar
    10    39    40    1
    11    39    38    1
    12    40    41    2
    13    67    65   ar
    14    38    36   am
    15    63    65   ar
    16    63    62    1
    17    62    59    1
    18    36    35    1
    19    36    37    2
    20    79    77    1
    21    35    34    1
    22    59    58    1
    23    59    60    1
    24    77    78    1
    25    77    76    2
    26    58    49   am
    27    34    28   am
    28    54    56   ar
    29    54    52   ar
    30    60    61    2
    31    29    28    2
    32    56    57   ar
    33    76    75    1
    34    51    52    1
    35    51    48    1
    36    47    48    1
    37    28    27    1
    38    52    53   ar
    39    49    48    1
    40    49    50    2
    41    57    55   ar
    42    75    74    1
    43   109   107    1
    44    97    98    1
    45    97    96    1
    46    53    55   ar
    47    27    30    1
    48    27    26    1
    49    21    20    2
    50    74    73    1
    51    98    92    1
    52    30    31    1
    53   107   106    2
    54   107   108    1
    55   106   105    1
    56    96    93    1
    57    20    19    1
    58   105   104    1
    59    85    84    1
    60    73    70    1
    61    83    82    2
    62    33    32    1
    63    92    93    1
    64    92    88   am
    65    69    70    1
    66    31    32    1
    67    13    12    2
    68    19    22    1
    69    19    18    1
    70    25    23   am
    71    93    94    1
    72    87    88    1
    73    87    90    1
    74    87    86    1
    75    70    71    1
    76    22    23    1
    77    91    90    1
    78   115   114    1
    79    82    86   am
    80    82    81    1
    81    71    72    2
    82   114   111    1
    83    88    89    2
    84    23    24    2
    85    84    81    1
    86   104   103    1
    87    80    81    1
    88    12    18   am
    89    12    11    1
    90    94    95    2
    91   103   100    1
    92    16    15    1
    93    15    17    1
    94    15    14    1
    95   111   110    1
    96   111   112    1
    97    11    14    1
    98    11    10    1
    99   113   112    2
   100   112   116   am
   101   100    99    1
   102   100   101    1
   103     9     8    1
   104   123   121   am
   105   101   102    2
   106   116   117    1
   107     4     3    2
   108     8     7    1
   109   120   121    1
   110   120   117    1
   111   121   122    2
   112     7     6    1
   113   117   118    1
   114     3     2    1
   115     6     5    1
   116     2     5    1
   117     2     1    1
   118   118   119    2
