@<TRIPOS>MOLECULE
tmp/2pxcA02.pdb
 104 95 0 0 0
SMALL
GASTEIGER

@<TRIPOS>ATOM
      1  N        -20.3130   34.4120  -17.1060 N.3    33  ARG33      -0.1245
      2  CA       -19.2940   33.5340  -17.6990 C.3    33  ARG33       0.1563
      3  C        -18.9140   33.8870  -19.1430 C.2    33  ARG33       0.2260
      4  O        -18.0710   33.2180  -19.7390 O.2    33  ARG33      -0.2867
      5  CB       -19.7910   32.0860  -17.6600 C.3    33  ARG33       0.0307
      6  CG       -19.9720   31.5090  -16.2510 C.3    33  ARG33       0.0489
      7  CD       -18.6370   31.2120  -15.5970 C.3    33  ARG33       0.2205
      8  NE       -17.8430   30.2670  -16.3820 N.pl3  33  ARG33      -0.0865
      9  CZ       -16.5540   29.9960  -16.1930 C.cat  33  ARG33       0.5346
     10  NH1      -15.8620   30.5960  -15.2360 N.pl3  33  ARG33       0.1354
     11  NH2      -15.9550   29.1110  -16.9800 N.pl3  33  ARG33       0.1354
     12  N        -15.9720   32.1840  -21.5720 N.3    37  ARG37      -0.1245
     13  CA       -16.2440   31.5610  -22.8740 C.3    37  ARG37       0.1563
     14  C        -15.3630   32.1210  -23.9800 C.2    37  ARG37       0.2260
     15  O        -14.8200   31.3660  -24.7900 O.2    37  ARG37      -0.2867
     16  CB       -17.7170   31.7520  -23.2380 C.3    37  ARG37       0.0307
     17  CG       -18.1470   31.2160  -24.6240 C.3    37  ARG37       0.0489
     18  CD       -19.6020   30.6730  -24.6020 C.3    37  ARG37       0.2205
     19  NE       -19.6500   29.2030  -24.5110 N.pl3  37  ARG37      -0.0865
     20  CZ       -20.5970   28.4910  -23.9020 C.cat  37  ARG37       0.5346
     21  NH1      -21.6060   29.0750  -23.2600 N.pl3  37  ARG37       0.1354
     22  NH2      -20.5170   27.1670  -23.9150 N.pl3  37  ARG37       0.1354
     23  N        -11.8010   30.9320  -23.4340 N.3    40  ARG40      -0.1245
     24  CA       -11.7940   29.5170  -23.7630 C.3    40  ARG40       0.1563
     25  C        -11.6130   29.3900  -25.2630 C.2    40  ARG40       0.2260
     26  O        -10.6290   28.8140  -25.7250 O.2    40  ARG40      -0.2867
     27  CB       -13.1160   28.8620  -23.3320 C.3    40  ARG40       0.0307
     28  CG       -12.9690   27.6430  -22.4620 C.3    40  ARG40       0.0489
     29  CD       -14.1910   26.7090  -22.5620 C.3    40  ARG40       0.2205
     30  NE       -15.5040   27.3720  -22.5970 N.pl3  40  ARG40      -0.0865
     31  CZ       -16.0920   27.9900  -21.5700 C.cat  40  ARG40       0.5346
     32  NH1      -15.4860   28.0960  -20.3920 N.pl3  40  ARG40       0.1354
     33  NH2      -17.2980   28.5300  -21.7260 N.pl3  40  ARG40       0.1354
     34  N        -12.3430   27.6440  -14.6950 N.3    51  VAL51      -0.1231
     35  CA       -12.7330   26.5600  -15.6130 C.3    51  VAL51       0.1692
     36  C        -14.2230   26.2020  -15.5540 C.2    51  VAL51       0.2593
     37  O        -14.7180   25.4690  -16.4140 O.2    51  VAL51      -0.2718
     38  CB       -11.9080   25.2710  -15.3780 C.3    51  VAL51       0.0266
     39  CG1      -10.4800   25.4620  -15.8480 C.3    51  VAL51       0.0020
     40  CG2      -11.9520   24.8510  -13.9140 C.3    51  VAL51       0.0020
     41  N        -14.9360   26.7080  -14.5510 N.am   52  SER52      -0.1938
     42  CA       -16.3540   26.3870  -14.3790 C.3    52  SER52       0.2055
     43  C        -17.0010   27.3490  -13.4020 C.2    52  SER52       0.2643
     44  O        -16.3410   28.2130  -12.8550 O.2    52  SER52      -0.2714
     45  CB       -16.5210   24.9590  -13.8530 C.3    52  SER52       0.2130
     46  OG       -16.0340   24.8620  -12.5310 O.3    52  SER52      -0.2179
     47  N        -18.3010   27.1780  -13.1890 N.am   53  ARG53      -0.1963
     48  CA       -19.0470   28.0020  -12.2490 C.3    53  ARG53       0.1729
     49  C        -18.7080   27.6640  -10.8040 C.2    53  ARG53       0.2616
     50  O        -18.8720   28.5020   -9.9290 O.2    53  ARG53      -0.2715
     51  CB       -20.5570   27.8510  -12.4850 C.3    53  ARG53       0.0348
     52  CG       -21.0370   28.5710  -13.7410 C.3    53  ARG53       0.0492
     53  CD       -22.5610   28.6290  -13.8570 C.3    53  ARG53       0.2205
     54  NE       -22.9780   29.1370  -15.1670 N.pl3  53  ARG53      -0.0865
     55  CZ       -23.1760   30.4220  -15.4710 C.cat  53  ARG53       0.5346
     56  NH1      -23.0360   31.3780  -14.5630 N.pl3  53  ARG53       0.1354
     57  NH2      -23.5260   30.7560  -16.7090 N.pl3  53  ARG53       0.1354
     58  N        -18.2260   26.4460  -10.5630 N.am   54  GLY54      -0.1955
     59  CA       -18.0050   25.9510   -9.2060 C.3    54  GLY54       0.1869
     60  C        -16.9720   26.7350   -8.4220 C.2    54  GLY54       0.2309
     61  O        -17.0140   26.7930   -7.1900 O.2    54  GLY54      -0.2863
     62  N        -13.4950   19.6350  -14.3250 N.3    80  ARG80      -0.1245
     63  CA       -12.5180   20.4580  -15.0490 C.3    80  ARG80       0.1563
     64  C        -11.4980   21.0430  -14.0860 C.2    80  ARG80       0.2260
     65  O        -10.3390   21.2670  -14.4570 O.2    80  ARG80      -0.2867
     66  CB       -13.2110   21.5820  -15.8280 C.3    80  ARG80       0.0307
     67  CG       -14.2480   21.0730  -16.8210 C.3    80  ARG80       0.0489
     68  CD       -14.4550   22.0150  -17.9960 C.3    80  ARG80       0.2205
     69  NE       -15.7320   21.7490  -18.6580 N.pl3  80  ARG80      -0.0865
     70  CZ       -16.9050   22.2830  -18.3050 C.cat  80  ARG80       0.5346
     71  NH1      -17.0030   23.1460  -17.2890 N.pl3  80  ARG80       0.1354
     72  NH2      -18.0010   21.9500  -18.9820 N.pl3  80  ARG80       0.1354
     73  N        -19.7880   11.3060  -21.0660 N.3   105  GLY105     -0.1225
     74  CA       -20.7520   11.9530  -20.1880 C.3   105  GLY105      0.1811
     75  C        -20.1410   12.5290  -18.9250 C.2   105  GLY105      0.2280
     76  O        -20.8590   12.7790  -17.9590 O.2   105  GLY105     -0.2866
     77  N        -16.8780   15.2370  -17.2500 N.3   107  GLU107     -0.1245
     78  CA       -15.9720   16.3530  -17.4780 C.3   107  GLU107      0.1567
     79  C        -14.5200   15.9100  -17.2860 C.2   107  GLU107      0.2260
     80  O        -14.1880   15.2970  -16.2670 O.2   107  GLU107     -0.2867
     81  CB       -16.3040   17.4970  -16.4990 C.3   107  GLU107      0.0388
     82  CG       -17.6520   18.1980  -16.7400 C.3   107  GLU107      0.1160
     83  CD       -18.8730   17.4410  -16.2070 C.2   107  GLU107      0.3649
     84  OE1      -18.8820   16.1930  -16.2330 O.co2 107  GLU107     -0.2457
     85  OE2      -19.8420   18.0990  -15.7780 O.co2 107  GLU107     -0.2457
     86  N         -9.0900   20.1850  -16.9550 N.3   110  MET110     -0.1245
     87  CA        -8.7800   21.2220  -17.9360 C.3   110  MET110      0.1570
     88  C         -7.5660   22.0250  -17.5020 C.2   110  MET110      0.2261
     89  O         -7.5290   22.5090  -16.3780 O.2   110  MET110     -0.2867
     90  CB        -9.9800   22.1540  -18.0780 C.3   110  MET110      0.0387
     91  CG        -9.8370   23.1860  -19.1680 C.3   110  MET110      0.0595
     92  SD       -11.2780   24.2560  -19.2520 S.3   110  MET110     -0.1393
     93  CE       -10.6770   25.5490  -20.3680 C.3   110  MET110      0.0692
     94  N        -28.9350   26.7300   -8.2940 N.3   209  ARG209     -0.1245
     95  CA       -30.1740   27.0470   -9.0040 C.3   209  ARG209      0.1563
     96  C        -31.3590   26.4700   -8.2440 C.2   209  ARG209      0.2260
     97  O        -31.2140   25.4770   -7.5190 O.2   209  ARG209     -0.2867
     98  CB       -30.1360   26.5110  -10.4380 C.3   209  ARG209      0.0307
     99  CG       -28.8110   26.7690  -11.1390 C.3   209  ARG209      0.0489
    100  CD       -28.9570   26.9880  -12.6320 C.3   209  ARG209      0.2205
    101  NE       -27.6890   27.4440  -13.2060 N.pl3 209  ARG209     -0.0865
    102  CZ       -26.7270   26.6590  -13.6910 C.cat 209  ARG209      0.5346
    103  NH1      -26.8500   25.3300  -13.7140 N.pl3 209  ARG209      0.1354
    104  NH2      -25.6240   27.2170  -14.1690 N.pl3 209  ARG209      0.1354
@<TRIPOS>BOND
     1    26    25    2
     2    25    24    1
     3    15    14    2
     4    17    18    1
     5    17    16    1
     6    18    19    1
     7    19    20    2
     8    14    13    1
     9    22    20    1
    10    20    21    1
    11    24    23    1
    12    24    27    1
    13    27    28    1
    14    16    13    1
    15    13    12    1
    16    30    29    1
    17    30    31    2
    18    29    28    1
    19    33    31    1
    20    31    32    1
    21    73    74    1
    22    93    92    1
    23    74    75    1
    24     4     3    2
    25    92    91    1
    26    91    90    1
    27     3     2    1
    28    72    70    1
    29    75    76    2
    30    69    70    2
    31    69    68    1
    32    70    71    1
    33    90    87    1
    34    68    67    1
    35    87    88    1
    36    87    86    1
    37     2     5    1
    38     2     1    1
    39     5     6    1
    40    88    89    2
    41    78    79    1
    42    78    77    1
    43    78    81    1
    44    79    80    2
    45    11     9    1
    46    67    66    1
    47    82    81    1
    48    82    83    1
    49    57    55    1
    50    37    36    2
    51     8     9    2
    52     8     7    1
    53     6     7    1
    54    84    83   ar
    55    83    85   ar
    56     9    10    1
    57    39    38    1
    58    66    63    1
    59    35    36    1
    60    35    38    1
    61    35    34    1
    62    36    41   am
    63    55    54    2
    64    55    56    1
    65    38    40    1
    66    54    53    1
    67    63    62    1
    68    63    64    1
    69    41    42    1
    70    65    64    2
    71    42    45    1
    72    42    43    1
    73   104   102    1
    74    53    52    1
    75    45    46    1
    76    52    51    1
    77   103   102    1
    78   102   101    2
    79    43    47   am
    80    43    44    2
    81   101   100    1
    82    47    48    1
    83   100    99    1
    84    51    48    1
    85    48    49    1
    86    99    98    1
    87    49    58   am
    88    49    50    2
    89    58    59    1
    90    98    95    1
    91    59    60    1
    92    95    94    1
    93    95    96    1
    94    60    61    2
    95    96    97    2
