@<TRIPOS>MOLECULE
tmp/2pxcA01.pdb
 127 121 0 0 0
SMALL
GASTEIGER

@<TRIPOS>ATOM
      1  N        -39.8090   18.7980   -4.6130 N.3     9  LYS9       -0.1245
      2  CA       -39.3880   17.9530   -5.7380 C.3     9  LYS9        0.1561
      3  C        -40.5790   17.5250   -6.6040 C.2     9  LYS9        0.2260
      4  O        -40.4500   17.3670   -7.8180 O.2     9  LYS9       -0.2867
      5  CB       -38.6180   16.7280   -5.2180 C.3     9  LYS9        0.0271
      6  CG       -37.9510   15.8370   -6.2900 C.3     9  LYS9        0.0035
      7  CD       -36.8840   16.5600   -7.1210 C.3     9  LYS9        0.0206
      8  CE       -35.9650   15.5630   -7.8520 C.3     9  LYS9        0.1093
      9  NZ       -34.8520   16.1740   -8.6680 N.3     9  LYS9       -0.1314
     10  N        -41.8940   20.7450   -8.3640 N.3    12  LEU12      -0.1231
     11  CA       -40.9060   21.0760   -9.3940 C.3    12  LEU12       0.1693
     12  C        -41.1510   20.3000  -10.6960 C.2    12  LEU12       0.2592
     13  O        -41.1740   20.8940  -11.7720 O.2    12  LEU12      -0.2718
     14  CB       -39.4870   20.8060   -8.8650 C.3    12  LEU12       0.0284
     15  CG       -38.2750   21.0710   -9.7730 C.3    12  LEU12       0.0019
     16  CD1      -38.1850   22.5380  -10.1910 C.3    12  LEU12       0.0001
     17  CD2      -36.9880   20.6400   -9.0660 C.3    12  LEU12       0.0001
     18  N        -41.3550   18.9860  -10.5900 N.am   13  ASN13      -0.1974
     19  CA       -41.4930   18.1170  -11.7700 C.3    13  ASN13       0.1688
     20  C        -42.7940   18.3430  -12.5180 C.2    13  ASN13       0.2292
     21  O        -42.9560   17.8790  -13.6430 O.2    13  ASN13      -0.2864
     22  CB       -41.4150   16.6320  -11.3790 C.3    13  ASN13       0.1181
     23  CG       -40.0830   16.2460  -10.7450 C.2    13  ASN13       0.2629
     24  OD1      -39.0130   16.7320  -11.1390 O.2    13  ASN13      -0.2716
     25  ND2      -40.1450   15.3660   -9.7500 N.am   13  ASN13      -0.0877
     26  N        -43.9890   21.3020  -13.3160 N.3    15  MET15      -0.1230
     27  CA       -43.9700   22.6040  -13.9840 C.3    15  MET15       0.1702
     28  C        -43.7840   22.4510  -15.4790 C.2    15  MET15       0.2593
     29  O        -43.0960   21.5340  -15.9310 O.2    15  MET15      -0.2718
     30  CB       -42.8330   23.4700  -13.4460 C.3    15  MET15       0.0401
     31  CG       -42.8930   23.7270  -11.9570 C.3    15  MET15       0.0596
     32  SD       -41.5520   24.7910  -11.3710 S.3    15  MET15      -0.1393
     33  CE       -42.4230   26.3180  -11.0100 C.3    15  MET15       0.0692
     34  N        -44.3860   23.3630  -16.2430 N.am   16  GLY16      -0.1942
     35  CA       -44.1180   23.4610  -17.6790 C.3    16  GLY16       0.2014
     36  C        -42.6930   23.9330  -17.9570 C.2    16  GLY16       0.2638
     37  O        -41.9840   24.3850  -17.0470 O.2    16  GLY16      -0.2714
     38  N        -42.2680   23.8220  -19.2120 N.am   17  LYS17      -0.1977
     39  CA       -40.9360   24.2750  -19.6220 C.3    17  LYS17       0.1596
     40  C        -40.7350   25.7580  -19.3130 C.2    17  LYS17       0.2287
     41  O        -39.8420   26.1230  -18.5450 O.2    17  LYS17      -0.2864
     42  CB       -40.7050   24.0200  -21.1160 C.3    17  LYS17       0.0298
     43  CG       -40.5980   22.5390  -21.4670 C.3    17  LYS17       0.0038
     44  CD       -40.3470   22.3010  -22.9550 C.3    17  LYS17       0.0206
     45  CE       -40.3190   20.8070  -23.2650 C.3    17  LYS17       0.1093
     46  NZ       -40.2300   20.5270  -24.7270 N.3    17  LYS17      -0.1314
     47  N        -40.6620   26.3100  -15.5460 N.3    20  PHE20      -0.1227
     48  CA       -39.4650   25.6930  -14.9790 C.3    20  PHE20       0.1736
     49  C        -38.2530   26.5900  -15.1980 C.2    20  PHE20       0.2595
     50  O        -37.7140   27.1510  -14.2390 O.2    20  PHE20      -0.2718
     51  CB       -39.2390   24.3100  -15.6090 C.3    20  PHE20       0.0547
     52  CG       -37.9830   23.6160  -15.1520 C.ar   20  PHE20      -0.0202
     53  CD1      -37.9430   22.9500  -13.9290 C.ar   20  PHE20      -0.0042
     54  CD2      -36.8520   23.5970  -15.9550 C.ar   20  PHE20      -0.0042
     55  CE1      -36.7890   22.2870  -13.5030 C.ar   20  PHE20      -0.0003
     56  CE2      -35.6890   22.9350  -15.5380 C.ar   20  PHE20      -0.0003
     57  CZ       -35.6640   22.2790  -14.3070 C.ar   20  PHE20      -0.0000
     58  N        -37.8570   26.7480  -16.4620 N.am   21  PHE21      -0.1976
     59  CA       -36.6530   27.4960  -16.8230 C.3    21  PHE21       0.1639
     60  C        -36.6400   28.8820  -16.1900 C.2    21  PHE21       0.2290
     61  O        -35.5930   29.3640  -15.7440 O.2    21  PHE21      -0.2864
     62  CB       -36.5190   27.6140  -18.3490 C.3    21  PHE21       0.0560
     63  CG       -36.2050   26.3080  -19.0370 C.ar   21  PHE21      -0.0200
     64  CD1      -37.0000   25.8420  -20.0770 C.ar   21  PHE21      -0.0042
     65  CD2      -35.1140   25.5390  -18.6420 C.ar   21  PHE21      -0.0042
     66  CE1      -36.7090   24.6360  -20.7190 C.ar   21  PHE21      -0.0003
     67  CE2      -34.8220   24.3280  -19.2760 C.ar   21  PHE21      -0.0003
     68  CZ       -35.6200   23.8800  -20.3140 C.ar   21  PHE21      -0.0000
     69  N        -36.2250   28.3210  -12.2090 N.3    24  ARG24      -0.1245
     70  CA       -34.9890   27.7960  -11.6660 C.3    24  ARG24       0.1563
     71  C        -33.9200   28.8580  -11.4830 C.2    24  ARG24       0.2260
     72  O        -32.9760   28.6450  -10.7320 O.2    24  ARG24      -0.2867
     73  CB       -34.4790   26.5920  -12.4540 C.3    24  ARG24       0.0307
     74  CG       -33.8300   26.8370  -13.7940 C.3    24  ARG24       0.0489
     75  CD       -32.8290   25.7030  -14.0380 C.3    24  ARG24       0.2205
     76  NE       -32.3260   25.6640  -15.4080 N.pl3  24  ARG24      -0.0865
     77  CZ       -31.1240   25.2140  -15.7750 C.cat  24  ARG24       0.5346
     78  NH1      -30.2390   24.7590  -14.8830 N.pl3  24  ARG24       0.1354
     79  NH2      -30.7960   25.2310  -17.0620 N.pl3  24  ARG24       0.1354
     80  N        -19.7880   11.3060  -21.0660 N.3   105  GLY105     -0.1225
     81  CA       -20.7520   11.9530  -20.1880 C.3   105  GLY105      0.1811
     82  C        -20.1410   12.5290  -18.9250 C.2   105  GLY105      0.2280
     83  O        -20.8590   12.7790  -17.9590 O.2   105  GLY105     -0.2866
     84  N        -28.1370   14.6750  -10.4840 N.3   146  SER146     -0.1202
     85  CA       -29.5650   14.9410  -10.3680 C.3   146  SER146      0.2020
     86  C        -30.3980   13.7990  -10.9180 C.2   146  SER146      0.2619
     87  O        -29.9010   12.9520  -11.6480 O.2   146  SER146     -0.2717
     88  CB       -29.9260   16.2400  -11.0950 C.3   146  SER146      0.2103
     89  OG       -29.4040   17.3720  -10.4070 O.3   146  SER146     -0.2182
     90  N        -31.6740   13.7980  -10.5510 N.am  147  SER147     -0.1938
     91  CA       -32.6210   12.7630  -10.9510 C.3   147  SER147      0.2040
     92  C        -34.0160   13.2350  -10.5630 C.2   147  SER147      0.2485
     93  O        -34.1970   13.7790   -9.4790 O.2   147  SER147     -0.2729
     94  CB       -32.3050   11.4520  -10.2340 C.3   147  SER147      0.2129
     95  OG       -33.3530   10.5090  -10.3840 O.3   147  SER147     -0.2179
     96  N        -35.0110   13.0520  -11.4400 N.am  148  PRO148     -0.2726
     97  CA       -36.3730   13.3880  -11.0040 C.3   148  PRO148      0.1402
     98  C        -36.9070   12.5430   -9.8280 C.2   148  PRO148      0.2269
     99  O        -37.9250   12.9040   -9.2370 O.2   148  PRO148     -0.2865
    100  CB       -37.2180   13.1640  -12.2690 C.3   148  PRO148      0.0296
    101  CG       -36.2360   13.1850  -13.3990 C.3   148  PRO148      0.0237
    102  CD       -34.9790   12.5980  -12.8390 C.3   148  PRO148      0.0939
    103  N        -28.9350   26.7300   -8.2940 N.3   209  ARG209     -0.1245
    104  CA       -30.1740   27.0470   -9.0040 C.3   209  ARG209      0.1563
    105  C        -31.3590   26.4700   -8.2440 C.2   209  ARG209      0.2260
    106  O        -31.2140   25.4770   -7.5190 O.2   209  ARG209     -0.2867
    107  CB       -30.1360   26.5110  -10.4380 C.3   209  ARG209      0.0307
    108  CG       -28.8110   26.7690  -11.1390 C.3   209  ARG209      0.0489
    109  CD       -28.9570   26.9880  -12.6320 C.3   209  ARG209      0.2205
    110  NE       -27.6890   27.4440  -13.2060 N.pl3 209  ARG209     -0.0865
    111  CZ       -26.7270   26.6590  -13.6910 C.cat 209  ARG209      0.5346
    112  NH1      -26.8500   25.3300  -13.7140 N.pl3 209  ARG209      0.1354
    113  NH2      -25.6240   27.2170  -14.1690 N.pl3 209  ARG209      0.1354
    114  N        -33.7120   24.7550   -9.2510 N.3   211  SER211     -0.1202
    115  CA       -34.0760   23.4150   -9.7370 C.3   211  SER211      0.2020
    116  C        -33.4340   22.2840   -8.9250 C.2   211  SER211      0.2618
    117  O        -33.8050   21.1170   -9.0890 O.2   211  SER211     -0.2717
    118  CB       -33.7270   23.2450  -11.2270 C.3   211  SER211      0.2103
    119  OG       -32.3320   23.0730  -11.4550 O.3   211  SER211     -0.2182
    120  N        -32.4600   22.6180   -8.0790 N.am  212  ASN212     -0.1974
    121  CA       -31.8500   21.6350   -7.1800 C.3   212  ASN212      0.1688
    122  C        -31.7670   22.1440   -5.7400 C.2   212  ASN212      0.2292
    123  O        -31.6810   23.3550   -5.4960 O.2   212  ASN212     -0.2864
    124  CB       -30.4750   21.1910   -7.6850 C.3   212  ASN212      0.1181
    125  CG       -29.5260   22.3340   -7.8660 C.2   212  ASN212      0.2629
    126  OD1      -29.2750   23.1010   -6.9360 O.2   212  ASN212     -0.2716
    127  ND2      -28.9840   22.4630   -9.0730 N.am  212  ASN212     -0.0877
@<TRIPOS>BOND
     1    46    45    1
     2    45    44    1
     3    44    43    1
     4    43    42    1
     5    42    39    1
     6    80    81    1
     7    66    68   ar
     8    66    64   ar
     9    68    67   ar
    10    81    82    1
    11    64    63   ar
    12    39    40    1
    13    39    38    1
    14    40    41    2
    15    67    65   ar
    16    38    36   am
    17    63    65   ar
    18    63    62    1
    19    82    83    2
    20    62    59    1
    21    36    35    1
    22    36    37    2
    23    35    34    1
    24    79    77    1
    25    59    58    1
    26    59    60    1
    27    58    49   am
    28    34    28   am
    29    60    61    2
    30    54    56   ar
    31    54    52   ar
    32    29    28    2
    33    77    76    2
    34    77    78    1
    35    51    52    1
    36    51    48    1
    37    47    48    1
    38    56    57   ar
    39    28    27    1
    40    76    75    1
    41    49    48    1
    42    49    50    2
    43    52    53   ar
    44    57    55   ar
    45   113   111    1
    46    75    74    1
    47    27    30    1
    48    27    26    1
    49    53    55   ar
    50    74    73    1
    51   112   111    1
    52   111   110    2
    53    21    20    2
    54    30    31    1
    55   101   102    1
    56   101   100    1
    57   110   109    1
    58   102    96    1
    59   109   108    1
    60    20    19    1
    61    73    70    1
    62   100    97    1
    63    69    70    1
    64    31    32    1
    65    13    12    2
    66    19    22    1
    67    19    18    1
    68    70    71    1
    69    87    86    2
    70    71    72    2
    71   119   118    1
    72    96    97    1
    73    96    92   am
    74    22    23    1
    75    32    33    1
    76   118   115    1
    77   108   107    1
    78    24    23    2
    79    88    89    1
    80    88    85    1
    81    97    98    1
    82    91    92    1
    83    91    90    1
    84    91    94    1
    85    86    90   am
    86    86    85    1
    87    23    25   am
    88    12    18   am
    89    12    11    1
    90    92    93    2
    91    84    85    1
    92   107   104    1
    93    95    94    1
    94    16    15    1
    95    98    99    2
    96    15    17    1
    97    15    14    1
    98   115   114    1
    99   115   116    1
   100    11    14    1
   101    11    10    1
   102   117   116    2
   103   127   125   am
   104   104   103    1
   105   104   105    1
   106   116   120   am
   107     9     8    1
   108   105   106    2
   109   120   121    1
   110   125   124    1
   111   125   126    2
   112     8     7    1
   113     4     3    2
   114   124   121    1
   115   121   122    1
   116     7     6    1
   117     3     2    1
   118     6     5    1
   119   122   123    2
   120     2     5    1
   121     2     1    1
