@<TRIPOS>MOLECULE
tmp/2pxhA00.pdb
 158 152 0 0 0
SMALL
GASTEIGER

@<TRIPOS>ATOM
      1  N        -22.8250   -6.1130   19.2400 N.3    33  GLY33      -0.1210
      2  CA       -21.5710   -6.8060   19.1590 C.3    33  GLY33       0.1956
      3  C        -21.7650   -8.0930   18.4230 C.2    33  GLY33       0.2612
      4  O        -22.8620   -8.6630   18.4100 O.2    33  GLY33      -0.2717
      5  N        -20.6940   -8.5580   17.8010 N.am   34  PHE34      -0.1962
      6  CA       -20.7280   -9.7910   17.0470 C.3    34  PHE34       0.1771
      7  C        -19.5080  -10.5840   17.4860 C.2    34  PHE34       0.2619
      8  O        -18.3830  -10.0530   17.5170 O.2    34  PHE34      -0.2715
      9  CB       -20.5780   -9.4830   15.5330 C.3    34  PHE34       0.0574
     10  CG       -21.6820   -8.6140   14.9420 C.ar   34  PHE34      -0.0200
     11  CD1      -21.4450   -7.2880   14.6160 C.ar   34  PHE34      -0.0042
     12  CD2      -22.9190   -9.1630   14.6710 C.ar   34  PHE34      -0.0042
     13  CE1      -22.4640   -6.5030   14.0360 C.ar   34  PHE34      -0.0003
     14  CE2      -23.9290   -8.4100   14.0550 C.ar   34  PHE34      -0.0003
     15  CZ       -23.6990   -7.0940   13.7580 C.ar   34  PHE34      -0.0000
     16  N        -19.7130  -11.8630   17.7900 N.am   35  GLU35      -0.1977
     17  CA       -18.5820  -12.7860   17.8240 C.3    35  GLU35       0.1602
     18  C        -18.0250  -12.8150   16.3870 C.2    35  GLU35       0.2287
     19  O        -18.8140  -12.9960   15.4510 O.2    35  GLU35      -0.2864
     20  CB       -19.1160  -14.1640   18.2170 C.3    35  GLU35       0.0415
     21  CG       -19.6210  -14.2450   19.6690 C.3    35  GLU35       0.1163
     22  CD       -20.0190  -15.6520   19.9790 C.2    35  GLU35       0.3649
     23  OE1      -19.2730  -16.5390   19.5600 O.co2  35  GLU35      -0.2457
     24  OE2      -21.0170  -15.8840   20.6820 O.co2  35  GLU35      -0.2457
     25  N        -19.0650   -3.7740   18.7870 N.3    64  TYR64      -0.1241
     26  CA       -18.1240   -4.5480   19.5580 C.3    64  TYR64       0.1605
     27  C        -17.7180   -5.7410   18.7630 C.2    64  TYR64       0.2264
     28  O        -18.5530   -6.5290   18.3760 O.2    64  TYR64      -0.2867
     29  CB       -18.6840   -4.9170   20.9360 C.3    64  TYR64       0.0534
     30  CG       -18.8090   -3.6730   21.7850 C.ar   64  TYR64      -0.0201
     31  CD1      -20.0330   -3.0260   21.9120 C.ar   64  TYR64      -0.0009
     32  CD2      -17.6840   -3.1340   22.4420 C.ar   64  TYR64      -0.0009
     33  CE1      -20.1500   -1.8700   22.6630 C.ar   64  TYR64       0.0417
     34  CE2      -17.7940   -1.9710   23.2220 C.ar   64  TYR64       0.0417
     35  CZ       -19.0330   -1.3570   23.3200 C.ar   64  TYR64       0.1957
     36  OH       -19.1480   -0.2110   24.0780 O.3    64  TYR64      -0.2866
     37  N        -16.6380   -8.8290   19.3340 N.3    66  ALA66      -0.1245
     38  CA       -16.7230   -9.4780   20.6460 C.3    66  ALA66       0.1562
     39  C        -15.7260  -10.6320   20.7320 C.2    66  ALA66       0.2260
     40  O        -16.1110  -11.7880   20.7490 O.2    66  ALA66      -0.2867
     41  CB       -18.1260   -9.9190   20.9490 C.3    66  ALA66       0.0290
     42  N        -16.0170  -12.7890   24.0580 N.3    69  ALA69      -0.1245
     43  CA       -17.2430  -13.5900   23.9910 C.3    69  ALA69       0.1562
     44  C        -17.0320  -14.7940   23.0950 C.2    69  ALA69       0.2260
     45  O        -17.5240  -15.8750   23.3750 O.2    69  ALA69      -0.2867
     46  CB       -18.3840  -12.7480   23.3780 C.3    69  ALA69       0.0290
     47  N        -13.8230   -6.2700   22.5530 N.3   104  GLY104     -0.1225
     48  CA       -14.2390   -6.3080   23.9580 C.3   104  GLY104      0.1811
     49  C        -13.0300   -6.5070   24.8950 C.2   104  GLY104      0.2280
     50  O        -12.9490   -5.8860   25.9600 O.2   104  GLY104     -0.2866
     51  N        -11.1200   -3.9200   27.1230 N.3   107  PHE107     -0.1227
     52  CA       -11.5170   -3.4720   28.4810 C.3   107  PHE107      0.1736
     53  C        -12.0810   -4.5780   29.3930 C.2   107  PHE107      0.2595
     54  O        -12.2080   -4.3970   30.5750 O.2   107  PHE107     -0.2718
     55  CB       -12.5010   -2.2990   28.3890 C.3   107  PHE107      0.0547
     56  CG       -13.7820   -2.6420   27.6580 C.ar  107  PHE107     -0.0202
     57  CD1      -14.8860   -3.1660   28.3500 C.ar  107  PHE107     -0.0042
     58  CD2      -13.8850   -2.4610   26.2960 C.ar  107  PHE107     -0.0042
     59  CE1      -16.0830   -3.4900   27.6900 C.ar  107  PHE107     -0.0003
     60  CE2      -15.0730   -2.8120   25.6210 C.ar  107  PHE107     -0.0003
     61  CZ       -16.1750   -3.3160   26.3290 C.ar  107  PHE107     -0.0000
     62  N        -12.4290   -5.7290   28.8260 N.am  108  GLN108     -0.1979
     63  CA       -13.1890   -6.7270   29.5450 C.3   108  GLN108      0.1601
     64  C        -12.3240   -7.6020   30.4360 C.2   108  GLN108      0.2287
     65  O        -12.8210   -8.5670   30.9900 O.2   108  GLN108     -0.2864
     66  CB       -13.9660   -7.6290   28.5480 C.3   108  GLN108      0.0394
     67  CG       -15.2150   -6.9600   27.9330 C.3   108  GLN108      0.0908
     68  CD       -16.0080   -7.8670   27.0070 C.2   108  GLN108      0.2608
     69  OE1      -15.4500   -8.5440   26.1460 O.2   108  GLN108     -0.2717
     70  NE2      -17.3140   -7.8670   27.1740 N.am  108  GLN108     -0.0878
     71  N        -27.5340  -19.1880   21.5730 N.3   136  ILE136     -0.1245
     72  CA       -26.2270  -18.5560   21.3240 C.3   136  ILE136      0.1561
     73  C        -25.0740  -19.4940   21.5310 C.2   136  ILE136      0.2260
     74  O        -24.0920  -19.4280   20.7840 O.2   136  ILE136     -0.2867
     75  CB       -26.0630  -17.3250   22.2220 C.3   136  ILE136      0.0252
     76  CG1      -27.0150  -16.2330   21.6990 C.3   136  ILE136      0.0019
     77  CG2      -24.5920  -16.7960   22.2280 C.3   136  ILE136      0.0019
     78  CD1      -27.4260  -15.3160   22.7360 C.3   136  ILE136      0.0001
     79  N        -20.2610  -16.2530   29.7770 N.3   150  TYR150     -0.1241
     80  CA       -20.5940  -15.4450   28.5810 C.3   150  TYR150      0.1605
     81  C        -21.7100  -14.4010   28.7920 C.2   150  TYR150      0.2264
     82  O        -21.4800  -13.2030   28.5390 O.2   150  TYR150     -0.2867
     83  CB       -20.8950  -16.4090   27.4370 C.3   150  TYR150      0.0534
     84  CG       -21.1730  -15.7790   26.1040 C.ar  150  TYR150     -0.0201
     85  CD1      -20.3340  -16.0200   25.0440 C.ar  150  TYR150     -0.0009
     86  CD2      -22.3430  -15.0190   25.8900 C.ar  150  TYR150     -0.0009
     87  CE1      -20.6110  -15.4710   23.7690 C.ar  150  TYR150      0.0417
     88  CE2      -22.6310  -14.4680   24.6470 C.ar  150  TYR150      0.0417
     89  CZ       -21.7570  -14.7020   23.5950 C.ar  150  TYR150      0.1957
     90  OH       -22.0330  -14.2150   22.3540 O.3   150  TYR150     -0.2866
     91  N        -20.5100  -11.7340   31.2120 N.3   153  MET153     -0.1230
     92  CA       -19.4860  -10.9430   30.4750 C.3   153  MET153      0.1702
     93  C        -20.1620   -9.8630   29.5870 C.2   153  MET153      0.2592
     94  O        -19.7410   -8.7090   29.5510 O.2   153  MET153     -0.2718
     95  CB       -18.5900  -11.8580   29.6290 C.3   153  MET153      0.0401
     96  CG       -17.6450  -11.1380   28.6960 C.3   153  MET153      0.0596
     97  SD       -16.4790  -10.1560   29.6590 S.3   153  MET153     -0.1393
     98  CE       -15.7500  -11.3780   30.7370 C.3   153  MET153      0.0692
     99  N        -21.1830  -10.2520   28.8460 N.am  154  GLU154     -0.1979
    100  CA       -21.8160   -9.3330   27.9130 C.3   154  GLU154      0.1602
    101  C        -22.6360   -8.3190   28.6640 C.2   154  GLU154      0.2287
    102  O        -22.6510   -7.1680   28.2870 O.2   154  GLU154     -0.2864
    103  CB       -22.7770  -10.0850   26.9760 C.3   154  GLU154      0.0415
    104  CG       -23.5330   -9.1230   26.0690 C.3   154  GLU154      0.1163
    105  CD       -24.2880   -9.7480   24.9020 C.2   154  GLU154      0.3649
    106  OE1      -23.9450  -10.8680   24.4700 O.co2 154  GLU154     -0.2457
    107  OE2      -25.2040   -9.0560   24.3800 O.co2 154  GLU154     -0.2457
    108  N        -20.5260   -5.8590   29.8300 N.3   157  GLY157     -0.1210
    109  CA       -20.1280   -5.0360   28.6560 C.3   157  GLY157      0.1956
    110  C        -21.1420   -3.9470   28.3780 C.2   157  GLY157      0.2611
    111  O        -20.7690   -2.7860   28.1410 O.2   157  GLY157     -0.2717
    112  N        -22.4310   -4.3100   28.3730 N.am  158  TRP158     -0.1976
    113  CA       -23.4380   -3.2870   28.1420 C.3   158  TRP158      0.1640
    114  C        -23.3580   -2.1820   29.1860 C.2   158  TRP158      0.2290
    115  O        -23.5490   -1.0210   28.8660 O.2   158  TRP158     -0.2864
    116  CB       -24.8700   -3.8850   28.0990 C.3   158  TRP158      0.0576
    117  CG       -25.0870   -4.7500   26.8700 C.ar  158  TRP158      0.0006
    118  CD1      -25.3690   -6.0700   26.8560 C.ar  158  TRP158      0.0946
    119  CD2      -25.0670   -4.3280   25.4980 C.ar  158  TRP158      0.0152
    120  NE1      -25.5220   -6.5110   25.5790 N.ar  158  TRP158     -0.2442
    121  CE2      -25.3180   -5.4710   24.7130 C.ar  158  TRP158      0.0810
    122  CE3      -24.8440   -3.1030   24.8590 C.ar  158  TRP158      0.0012
    123  CZ2      -25.3610   -5.4410   23.2930 C.ar  158  TRP158      0.0191
    124  CZ3      -24.8530   -3.0700   23.4310 C.ar  158  TRP158      0.0001
    125  CH2      -25.1330   -4.2300   22.6750 C.ar  158  TRP158      0.0015
    126  N        -20.3790   -0.0770   28.3440 N.3   161  SER161     -0.1217
    127  CA       -20.4750    0.6060   27.0470 C.3   161  SER161      0.1889
    128  C        -21.1020    1.9700   27.1980 C.2   161  SER161      0.2288
    129  O        -20.8600    2.8600   26.3720 O.2   161  SER161     -0.2866
    130  CB       -21.3220   -0.1860   26.0570 C.3   161  SER161      0.2089
    131  OG       -22.6910   -0.1560   26.4410 O.3   161  SER161     -0.2183
    132  N        -30.8350  -12.7840   20.8430 N.3   172  GLN172     -0.1245
    133  CA       -30.1470  -12.0580   21.9100 C.3   172  GLN172      0.1566
    134  C        -31.0880  -11.6580   23.0170 C.2   172  GLN172      0.2260
    135  O        -30.6570  -11.1060   24.0060 O.2   172  GLN172     -0.2867
    136  CB       -29.4750  -10.7790   21.3640 C.3   172  GLN172      0.0367
    137  CG       -28.5120  -10.9860   20.1980 C.3   172  GLN172      0.0905
    138  CD       -27.3680  -11.9130   20.5340 C.2   172  GLN172      0.2608
    139  OE1      -26.6250  -11.6890   21.5080 O.2   172  GLN172     -0.2717
    140  NE2      -27.2230  -12.9680   19.7530 N.am  172  GLN172     -0.0878
    141  N        -30.3580  -12.5230   26.9410 N.3   175  ILE175     -0.1231
    142  CA       -29.1660  -11.8200   27.4830 C.3   175  ILE175      0.1692
    143  C        -29.5200  -10.3460   27.7190 C.2   175  ILE175      0.2592
    144  O        -29.1670   -9.7470   28.7410 O.2   175  ILE175     -0.2718
    145  CB       -27.9330  -11.9410   26.5640 C.3   175  ILE175      0.0266
    146  CG1      -27.3770  -13.3800   26.5870 C.3   175  ILE175      0.0019
    147  CG2      -26.8230  -10.9760   27.0640 C.3   175  ILE175      0.0020
    148  CD1      -26.1630  -13.5800   25.6790 C.3   175  ILE175      0.0001
    149  N        -30.2290   -9.7580   26.7660 N.am  176  HIS176     -0.1976
    150  CA       -30.6290   -8.3500   26.9070 C.3   176  HIS176      0.1656
    151  C        -31.5950   -8.1910   28.0940 C.2   176  HIS176      0.2291
    152  O        -31.5160   -7.2390   28.8130 O.2   176  HIS176     -0.2864
    153  CB       -31.2390   -7.8390   25.5850 C.3   176  HIS176      0.0771
    154  CG       -30.2450   -7.7200   24.4730 C.ar  176  HIS176      0.0820
    155  ND1      -30.5960   -7.3330   23.1990 N.ar  176  HIS176     -0.2267
    156  CD2      -28.9100   -7.9830   24.4340 C.ar  176  HIS176      0.1154
    157  CE1      -29.5160   -7.3270   22.4300 C.ar  176  HIS176      0.1986
    158  NE2      -28.4780   -7.7040   23.1590 N.ar  176  HIS176     -0.2212
@<TRIPOS>BOND
     1    15    13   ar
     2    15    14   ar
     3    13    11   ar
     4    14    12   ar
     5    11    10   ar
     6    12    10   ar
     7    10     9    1
     8    19    18    2
     9     9     6    1
    10    18    17    1
    11     6     7    1
    12     6     5    1
    13     7     8    2
    14     7    16   am
    15    16    17    1
    16     5     3   am
    17    17    20    1
    18    20    21    1
    19    28    27    2
    20     4     3    2
    21     3     2    1
    22    27    26    1
    23    25    26    1
    24     2     1    1
    25    37    38    1
    26    26    29    1
    27    23    22   ar
    28    21    22    1
    29   140   138   am
    30    22    24   ar
    31   137   138    1
    32   137   136    1
    33   138   139    2
    34    38    39    1
    35    38    41    1
    36    39    40    2
    37    74    73    2
    38   132   133    1
    39    29    30    1
    40    72    73    1
    41    72    71    1
    42    72    75    1
    43   136   133    1
    44    76    75    1
    45    76    78    1
    46    30    31   ar
    47    30    32   ar
    48   133   134    1
    49    31    33   ar
    50    75    77    1
    51    90    89    1
    52   157   158   ar
    53   157   155   ar
    54    32    34   ar
    55    47    48    1
    56    33    35   ar
    57   125   123   ar
    58   125   124   ar
    59   134   135    2
    60    44    45    2
    61    44    43    1
    62   158   156   ar
    63   155   154   ar
    64    34    35   ar
    65   123   121   ar
    66    35    36    1
    67    46    43    1
    68   124   122   ar
    69    89    87   ar
    70    89    88   ar
    71    87    85   ar
    72    48    49    1
    73    43    42    1
    74   107   105   ar
    75   156   154   ar
    76   106   105   ar
    77   154   153    1
    78    88    86   ar
    79   121   119   ar
    80   121   120   ar
    81   122   119   ar
    82    49    50    2
    83   105   104    1
    84    85    84   ar
    85   119   117   ar
    86   120   118   ar
    87   153   150    1
    88    60    58   ar
    89    60    61   ar
    90   148   146    1
    91    86    84   ar
    92   130   131    1
    93   130   127    1
    94   104   103    1
    95    84    83    1
    96    69    68    2
    97    58    56   ar
    98    61    59   ar
    99   129   128    2
   100   145   146    1
   101   145   147    1
   102   145   142    1
   103   149   150    1
   104   149   143   am
   105   118   117   ar
   106   117   116    1
   107   150   151    1
   108   141   142    1
   109   103   100    1
   110    68    70   am
   111    68    67    1
   112   127   128    1
   113   127   126    1
   114    51    52    1
   115    83    80    1
   116   142   143    1
   117    56    57   ar
   118    56    55    1
   119    59    57   ar
   120   143   144    2
   121   100   101    1
   122   100    99    1
   123    67    66    1
   124   151   152    2
   125   116   113    1
   126   111   110    2
   127   113   112    1
   128   113   114    1
   129   102   101    2
   130   112   110   am
   131   110   109    1
   132    55    52    1
   133    52    53    1
   134    82    81    2
   135    66    63    1
   136    80    81    1
   137    80    79    1
   138   109   108    1
   139    96    95    1
   140    96    97    1
   141    62    53   am
   142    62    63    1
   143    99    93   am
   144   115   114    2
   145    53    54    2
   146    63    64    1
   147    94    93    2
   148    93    92    1
   149    95    92    1
   150    97    98    1
   151    64    65    2
   152    92    91    1
