@<TRIPOS>MOLECULE
tmp/2pxjA00.pdb
 202 192 0 0 0
SMALL
GASTEIGER

@<TRIPOS>ATOM
      1  N        -14.8020   -9.5510  -27.2690 N.3    67  PRO67      -0.2102
      2  CA       -14.1920   -8.7470  -26.2120 C.3    67  PRO67       0.1504
      3  C        -13.8170   -9.4580  -24.9190 C.2    67  PRO67       0.2575
      4  O        -12.8130   -9.0920  -24.2930 O.2    67  PRO67      -0.2718
      5  CB       -15.2140   -7.6310  -25.9950 C.3    67  PRO67       0.0282
      6  CG       -16.5110   -8.3140  -26.2700 C.3    67  PRO67       0.0208
      7  CD       -16.1980   -9.1390  -27.5080 C.3    67  PRO67       0.0893
      8  N        -14.5860  -10.4730  -24.5220 N.am   68  ALA68      -0.1980
      9  CA       -14.2940  -11.1570  -23.2690 C.3    68  ALA68       0.1597
     10  C        -14.2500  -12.6750  -23.3140 C.2    68  ALA68       0.2287
     11  O        -15.0420  -13.3430  -22.6490 O.2    68  ALA68      -0.2864
     12  CB       -15.2910  -10.7080  -22.2090 C.3    68  ALA68       0.0319
     13  N        -13.2910  -16.4980  -22.4650 N.3    70  ILE70      -0.1245
     14  CA       -13.0320  -17.0860  -21.1540 C.3    70  ILE70       0.1561
     15  C        -12.4210  -18.4810  -21.2360 C.2    70  ILE70       0.2260
     16  O        -12.7920  -19.2730  -22.0950 O.2    70  ILE70      -0.2867
     17  CB       -14.3490  -17.1990  -20.3190 C.3    70  ILE70       0.0252
     18  CG1      -15.2850  -18.2220  -20.9680 C.3    70  ILE70       0.0019
     19  CG2      -15.0330  -15.8330  -20.2220 C.3    70  ILE70       0.0019
     20  CD1      -16.6310  -18.3940  -20.2800 C.3    70  ILE70       0.0001
     21  N        -10.9770  -15.0040  -17.3780 N.3    87  GLN87      -0.1245
     22  CA       -11.1230  -14.1340  -18.5420 C.3    87  GLN87       0.1566
     23  C         -9.7990  -13.9080  -19.2630 C.2    87  GLN87       0.2260
     24  O         -8.7640  -13.7170  -18.6200 O.2    87  GLN87      -0.2867
     25  CB       -11.7250  -12.7880  -18.1250 C.3    87  GLN87       0.0367
     26  CG       -12.3980  -12.0370  -19.2670 C.3    87  GLN87       0.0905
     27  CD       -13.2410  -10.8800  -18.7710 C.2    87  GLN87       0.2608
     28  OE1      -12.7270   -9.7760  -18.5450 O.2    87  GLN87      -0.2717
     29  NE2      -14.5460  -11.1250  -18.5850 N.am   87  GLN87      -0.0878
     30  N        -17.8110  -16.6730  -25.2450 N.3   133  ALA133     -0.1231
     31  CA       -19.2110  -16.5370  -24.8900 C.3   133  ALA133      0.1694
     32  C        -19.7220  -15.1440  -24.5140 C.2   133  ALA133      0.2592
     33  O        -18.9620  -14.2030  -24.2390 O.2   133  ALA133     -0.2718
     34  CB       -19.5400  -17.5350  -23.7670 C.3   133  ALA133      0.0304
     35  N        -21.0500  -15.0440  -24.5130 N.am  134  ASP134     -0.1974
     36  CA       -21.7630  -13.8190  -24.1620 C.3   134  ASP134      0.1709
     37  C        -21.2820  -12.5870  -24.9430 C.2   134  ASP134      0.2293
     38  O        -21.0630  -11.5110  -24.3790 O.2   134  ASP134     -0.2864
     39  CB       -21.6630  -13.5950  -22.6420 C.3   134  ASP134      0.1436
     40  CG       -22.0330  -14.8510  -21.8390 C.2   134  ASP134      0.3671
     41  OD1      -23.1230  -15.4240  -22.0450 O.co2 134  ASP134     -0.2456
     42  OD2      -21.2300  -15.2810  -20.9940 O.co2 134  ASP134     -0.2456
     43  N        -22.0540   -9.6200  -27.2400 N.3   136  ASN136     -0.1240
     44  CA       -23.1870   -8.8050  -27.6470 C.3   136  ASN136      0.1653
     45  C        -23.2470   -8.6640  -29.1560 C.2   136  ASN136      0.2266
     46  O        -22.2340   -8.3770  -29.7880 O.2   136  ASN136     -0.2867
     47  CB       -23.0890   -7.4250  -27.0100 C.3   136  ASN136      0.1155
     48  CG       -23.4640   -7.4350  -25.5580 C.2   136  ASN136      0.2627
     49  OD1      -24.6310   -7.6040  -25.2120 O.2   136  ASN136     -0.2716
     50  ND2      -22.4760   -7.2630  -24.6890 N.am  136  ASN136     -0.0877
     51  N        -35.2320   -0.2910  -19.5410 N.3   165  ILE165     -0.1231
     52  CA       -34.1550   -1.1420  -19.0510 C.3   165  ILE165      0.1692
     53  C        -33.7130   -2.2280  -20.0340 C.2   165  ILE165      0.2593
     54  O        -34.5240   -3.0030  -20.5560 O.2   165  ILE165     -0.2718
     55  CB       -34.5370   -1.8010  -17.7170 C.3   165  ILE165      0.0266
     56  CG1      -34.7930   -0.7200  -16.6710 C.3   165  ILE165      0.0019
     57  CG2      -33.4110   -2.7190  -17.2500 C.3   165  ILE165      0.0020
     58  CD1      -35.2950   -1.2400  -15.3540 C.3   165  ILE165      0.0001
     59  N        -32.4080   -2.2460  -20.2870 N.am  166  THR166     -0.1939
     60  CA       -31.7760   -3.2040  -21.1790 C.3   166  THR166      0.2028
     61  C        -30.9860   -4.2050  -20.3380 C.2   166  THR166      0.2642
     62  O        -30.2250   -3.8200  -19.4470 O.2   166  THR166     -0.2714
     63  CB       -30.8270   -2.4850  -22.1710 C.3   166  THR166      0.1808
     64  OG1      -31.6060   -1.9140  -23.2260 O.3   166  THR166     -0.2208
     65  CG2      -29.8020   -3.4400  -22.7660 C.3   166  THR166      0.0379
     66  N        -31.1900   -5.4890  -20.6070 N.am  167  ILE167     -0.1963
     67  CA       -30.4800   -6.5360  -19.8780 C.3   167  ILE167      0.1727
     68  C        -29.7650   -7.4100  -20.9090 C.2   167  ILE167      0.2616
     69  O        -30.3520   -8.3430  -21.4520 O.2   167  ILE167     -0.2715
     70  CB       -31.4600   -7.3820  -19.0480 C.3   167  ILE167      0.0290
     71  CG1      -32.2770   -6.4680  -18.1390 C.3   167  ILE167      0.0022
     72  CG2      -30.6990   -8.3930  -18.2090 C.3   167  ILE167      0.0023
     73  CD1      -33.3050   -7.1890  -17.2980 C.3   167  ILE167      0.0001
     74  N        -28.5030   -7.0820  -21.1800 N.am  168  GLU168     -0.1963
     75  CA       -27.6910   -7.7910  -22.1600 C.3   168  GLU168      0.1733
     76  C        -27.7780   -9.3140  -22.0750 C.2   168  GLU168      0.2617
     77  O        -27.5450   -9.9140  -21.0250 O.2   168  GLU168     -0.2715
     78  CB       -26.2330   -7.3230  -22.0640 C.3   168  GLU168      0.0429
     79  CG       -26.0590   -5.8500  -22.4580 C.3   168  GLU168      0.1163
     80  CD       -24.6020   -5.4460  -22.6810 C.2   168  GLU168      0.3649
     81  OE1      -23.7650   -5.6460  -21.7750 O.co2 168  GLU168     -0.2457
     82  OE2      -24.2890   -4.9170  -23.7690 O.co2 168  GLU168     -0.2457
     83  N        -28.1270   -9.9290  -23.2030 N.am  169  GLY169     -0.1940
     84  CA       -28.2630  -11.3700  -23.2600 C.3   169  GLY169      0.2014
     85  C        -29.6660  -11.8540  -22.9100 C.2   169  GLY169      0.2638
     86  O        -30.0770  -12.9280  -23.3390 O.2   169  GLY169     -0.2714
     87  N        -30.4000  -11.0690  -22.1260 N.am  170  VAL170     -0.1977
     88  CA       -31.7570  -11.4420  -21.7220 C.3   170  VAL170      0.1596
     89  C        -32.7580  -10.8690  -22.7250 C.2   170  VAL170      0.2287
     90  O        -33.4920  -11.6270  -23.3470 O.2   170  VAL170     -0.2864
     91  CB       -32.0660  -10.9410  -20.2950 C.3   170  VAL170      0.0276
     92  CG1      -33.5210  -11.2130  -19.9370 C.3   170  VAL170      0.0022
     93  CG2      -31.1440  -11.6290  -19.3140 C.3   170  VAL170      0.0022
     94  N        -27.1470  -12.5170  -27.8980 N.3   174  TYR174     -0.1241
     95  CA       -25.8080  -12.9230  -27.4800 C.3   174  TYR174      0.1605
     96  C        -25.2460  -13.9590  -28.4470 C.2   174  TYR174      0.2264
     97  O        -25.9640  -14.8660  -28.8860 O.2   174  TYR174     -0.2867
     98  CB       -25.8390  -13.5590  -26.0880 C.3   174  TYR174      0.0534
     99  CG       -25.3940  -12.6790  -24.9450 C.ar  174  TYR174     -0.0201
    100  CD1      -25.3320  -13.1850  -23.6540 C.ar  174  TYR174     -0.0009
    101  CD2      -25.0720  -11.3330  -25.1380 C.ar  174  TYR174     -0.0009
    102  CE1      -24.9710  -12.3890  -22.5850 C.ar  174  TYR174      0.0417
    103  CE2      -24.7070  -10.5190  -24.0590 C.ar  174  TYR174      0.0417
    104  CZ       -24.6620  -11.0610  -22.7860 C.ar  174  TYR174      0.1957
    105  OH       -24.3190  -10.2850  -21.7050 O.3   174  TYR174     -0.2866
    106  N        -22.2430  -16.9220  -29.1560 N.3   176  TYR176     -0.1241
    107  CA       -21.3370  -17.8460  -28.4670 C.3   176  TYR176      0.1605
    108  C        -20.4660  -18.6050  -29.4620 C.2   176  TYR176      0.2264
    109  O        -20.9840  -19.3270  -30.3160 O.2   176  TYR176     -0.2867
    110  CB       -22.1070  -18.8900  -27.6330 C.3   176  TYR176      0.0534
    111  CG       -22.9460  -18.3220  -26.5180 C.ar  176  TYR176     -0.0201
    112  CD1      -24.0880  -17.5750  -26.7920 C.ar  176  TYR176     -0.0009
    113  CD2      -22.5890  -18.5100  -25.1850 C.ar  176  TYR176     -0.0009
    114  CE1      -24.8590  -17.0170  -25.7620 C.ar  176  TYR176      0.0417
    115  CE2      -23.3540  -17.9570  -24.1470 C.ar  176  TYR176      0.0417
    116  CZ       -24.4830  -17.2050  -24.4470 C.ar  176  TYR176      0.1957
    117  OH       -25.1940  -16.5740  -23.4440 O.3   176  TYR176     -0.2866
    118  N        -33.0220  -20.4500  -16.9720 N.3   189  GLU189     -0.1231
    119  CA       -32.7750  -19.0820  -17.3810 C.3   189  GLU189      0.1699
    120  C        -32.9980  -18.1000  -16.2350 C.2   189  GLU189      0.2592
    121  O        -33.6000  -18.4470  -15.2130 O.2   189  GLU189     -0.2718
    122  CB       -33.6910  -18.7210  -18.5490 C.3   189  GLU189      0.0402
    123  CG       -33.5480  -19.6400  -19.7350 C.3   189  GLU189      0.1161
    124  CD       -32.1170  -19.7240  -20.2320 C.2   189  GLU189      0.3649
    125  OE1      -31.6300  -20.8460  -20.3950 O.co2 189  GLU189     -0.2457
    126  OE2      -31.4910  -18.6670  -20.4610 O.co2 189  GLU189     -0.2457
    127  N        -32.5020  -16.8770  -16.4070 N.am  190  ASP190     -0.1974
    128  CA       -32.7020  -15.8340  -15.4110 C.3   190  ASP190      0.1709
    129  C        -34.2020  -15.5910  -15.2790 C.2   190  ASP190      0.2293
    130  O        -34.8990  -15.5130  -16.2880 O.2   190  ASP190     -0.2864
    131  CB       -32.0180  -14.5470  -15.8460 C.3   190  ASP190      0.1436
    132  CG       -30.5070  -14.6140  -15.7000 C.2   190  ASP190      0.3671
    133  OD1      -30.0250  -14.7110  -14.5450 O.co2 190  ASP190     -0.2456
    134  OD2      -29.8120  -14.5800  -16.7420 O.co2 190  ASP190     -0.2456
    135  N        -35.7880  -19.6190  -23.3580 N.3   195  SER195     -0.1217
    136  CA       -34.5940  -19.2060  -24.0640 C.3   195  SER195      0.1889
    137  C        -34.6890  -19.8060  -25.4570 C.2   195  SER195      0.2288
    138  O        -35.3430  -20.8280  -25.6690 O.2   195  SER195     -0.2866
    139  CB       -33.3190  -19.6820  -23.3610 C.3   195  SER195      0.2089
    140  OG       -33.1370  -21.0720  -23.5170 O.3   195  SER195     -0.2183
    141  N        -23.9360  -20.6810  -12.5900 N.3   240  LYS240     -0.1245
    142  CA       -23.5230  -21.3860  -13.8040 C.3   240  LYS240      0.1561
    143  C        -22.1070  -21.9470  -13.7160 C.2   240  LYS240      0.2260
    144  O        -21.3100  -21.7880  -14.6440 O.2   240  LYS240     -0.2867
    145  CB       -23.6440  -20.4660  -15.0300 C.3   240  LYS240      0.0271
    146  CG       -25.0810  -20.2090  -15.4660 C.3   240  LYS240      0.0035
    147  CD       -25.1620  -19.1840  -16.5930 C.3   240  LYS240      0.0206
    148  CE       -26.6070  -18.9460  -17.0210 C.3   240  LYS240      0.1093
    149  NZ       -26.7490  -17.9380  -18.1390 N.3   240  LYS240     -0.1314
    150  N        -28.2240  -16.4760  -29.0230 N.3   287  SER287     -0.1202
    151  CA       -29.3410  -16.7320  -28.1200 C.3   287  SER287      0.2020
    152  C        -29.8540  -15.5160  -27.3560 C.2   287  SER287      0.2619
    153  O        -29.2150  -14.4710  -27.3050 O.2   287  SER287     -0.2717
    154  CB       -28.9760  -17.8330  -27.1180 C.3   287  SER287      0.2103
    155  OG       -27.9870  -17.3890  -26.2120 O.3   287  SER287     -0.2182
    156  N        -31.0290  -15.6810  -26.7600 N.am  288  THR288     -0.1938
    157  CA       -31.6680  -14.6320  -25.9790 C.3   288  THR288      0.2028
    158  C        -32.8150  -15.2720  -25.2140 C.2   288  THR288      0.2642
    159  O        -33.1620  -16.4200  -25.4660 O.2   288  THR288     -0.2714
    160  CB       -32.2330  -13.5030  -26.8860 C.3   288  THR288      0.1808
    161  OG1      -32.4480  -12.3260  -26.1010 O.3   288  THR288     -0.2208
    162  CG2      -33.5620  -13.9120  -27.5110 C.3   288  THR288      0.0379
    163  N        -33.3880  -14.5480  -24.2690 N.am  289  ASN289     -0.1971
    164  CA       -34.5090  -15.0740  -23.5160 C.3   289  ASN289      0.1688
    165  C        -35.7770  -14.4670  -24.1160 C.2   289  ASN289      0.2292
    166  O        -35.7060  -13.5190  -24.8960 O.2   289  ASN289     -0.2864
    167  CB       -34.4010  -14.6770  -22.0400 C.3   289  ASN289      0.1181
    168  CG       -33.2190  -15.3260  -21.3380 C.2   289  ASN289      0.2629
    169  OD1      -32.3600  -14.6410  -20.7810 O.2   289  ASN289     -0.2716
    170  ND2      -33.1740  -16.6480  -21.3590 N.am  289  ASN289     -0.0877
    171  N        -25.2190   -8.2030   -9.3350 N.3   310  ASP310     -0.1225
    172  CA       -25.1600   -7.8190  -10.7370 C.3   310  ASP310      0.1805
    173  C        -26.0310   -8.8420  -11.4680 C.2   310  ASP310      0.2598
    174  O        -26.1080   -8.8630  -12.7050 O.2   310  ASP310     -0.2718
    175  CB       -23.7200   -7.8890  -11.2440 C.3   310  ASP310      0.1424
    176  CG       -23.5000   -7.0550  -12.4990 C.2   310  ASP310      0.3668
    177  OD1      -22.4530   -7.2490  -13.1670 O.co2 310  ASP310     -0.2456
    178  OD2      -24.3690   -6.1960  -12.8100 O.co2 310  ASP310     -0.2456
    179  N        -26.6860   -9.6840  -10.6730 N.am  311  MET311     -0.1965
    180  CA       -27.5550  -10.7330  -11.1830 C.3   311  MET311      0.1736
    181  C        -28.8180  -10.1660  -11.7850 C.2   311  MET311      0.2616
    182  O        -29.2880   -9.1100  -11.3580 O.2   311  MET311     -0.2715
    183  CB       -27.9130  -11.6930  -10.0560 C.3   311  MET311      0.0427
    184  CG       -26.7000  -12.3660   -9.4450 C.3   311  MET311      0.0599
    185  SD       -25.6360  -13.2310  -10.6510 S.3   311  MET311     -0.1393
    186  CE       -26.8020  -14.6580  -11.1510 C.3   311  MET311      0.0692
    187  N        -29.3690  -10.8760  -12.7670 N.am  312  VAL312     -0.1963
    188  CA       -30.5740  -10.4240  -13.4430 C.3   312  VAL312      0.1727
    189  C        -31.7940  -10.4660  -12.5270 C.2   312  VAL312      0.2616
    190  O        -32.1430  -11.5080  -11.9510 O.2   312  VAL312     -0.2715
    191  CB       -30.8460  -11.2530  -14.7130 C.3   312  VAL312      0.0290
    192  CG1      -32.1140  -10.7510  -15.4000 C.3   312  VAL312      0.0023
    193  CG2      -29.6610  -11.1440  -15.6580 C.3   312  VAL312      0.0023
    194  N        -32.4420   -9.3120  -12.4130 N.am  313  LYS313     -0.1977
    195  CA       -33.6190   -9.1430  -11.5850 C.3   313  LYS313      0.1596
    196  C        -34.6580   -8.4120  -12.4320 C.2   313  LYS313      0.2287
    197  O        -34.3750   -7.3390  -12.9550 O.2   313  LYS313     -0.2864
    198  CB       -33.2480   -8.2850  -10.3740 C.3   313  LYS313      0.0298
    199  CG       -33.7990   -8.7520   -9.0400 C.3   313  LYS313      0.0038
    200  CD       -35.3140   -8.6750   -8.9770 C.3   313  LYS313      0.0206
    201  CE       -35.7930   -8.9230   -7.5620 C.3   313  LYS313      0.1093
    202  NZ       -35.1310   -7.9590   -6.6290 N.3   313  LYS313     -0.1314
@<TRIPOS>BOND
     1   109   108    2
     2    46    45    2
     3   108   107    1
     4    45    44    1
     5   106   107    1
     6   150   151    1
     7    97    96    2
     8   107   110    1
     9    96    95    1
    10   151   152    1
    11   151   154    1
    12    94    95    1
    13    44    43    1
    14    44    47    1
    15   110   111    1
    16   162   160    1
    17     7     1    1
    18     7     6    1
    19    95    98    1
    20   152   153    2
    21   152   156   am
    22     1     2    1
    23   154   155    1
    24    47    48    1
    25   160   161    1
    26   160   157    1
    27   112   111   ar
    28   112   114   ar
    29   156   157    1
    30   111   113   ar
    31     6     5    1
    32     2     5    1
    33     2     3    1
    34    98    99    1
    35   157   158    1
    36   114   116   ar
    37   138   137    2
    38    48    49    2
    39    48    50   am
    40   159   158    2
    41   137   136    1
    42    30    31    1
    43   158   163   am
    44   113   115   ar
    45   101    99   ar
    46   101   103   ar
    47    99   100   ar
    48    37    38    2
    49    37    36    1
    50     3     8   am
    51     3     4    2
    52   166   165    2
    53    31    32    1
    54    31    34    1
    55     8     9    1
    56    32    35   am
    57    32    33    2
    58    35    36    1
    59   116   115   ar
    60   116   117    1
    61   163   164    1
    62    36    39    1
    63   165   164    1
    64   136   139    1
    65   136   135    1
    66   103   104   ar
    67    82    80   ar
    68   100   102   ar
    69   140   139    1
    70   164   167    1
    71    90    89    2
    72    86    85    2
    73    10     9    1
    74    10    11    2
    75     9    12    1
    76    84    83    1
    77    84    85    1
    78    64    63    1
    79    83    76   am
    80    85    87   am
    81   104   102   ar
    82   104   105    1
    83    65    63    1
    84    89    88    1
    85    80    79    1
    86    80    81   ar
    87    39    40    1
    88    13    14    1
    89    79    78    1
    90    63    60    1
    91    75    76    1
    92    75    78    1
    93    75    74    1
    94    87    88    1
    95    16    15    2
    96    76    77    2
    97    41    40   ar
    98   167   168    1
    99    40    42   ar
   100    88    91    1
   101    69    68    2
   102   170   168   am
   103   168   169    2
   104    15    14    1
   105    74    68   am
   106    60    61    1
   107    60    59    1
   108    14    17    1
   109    18    17    1
   110    18    20    1
   111    68    67    1
   112    66    61   am
   113    66    67    1
   114    54    53    2
   115   126   124   ar
   116   125   124   ar
   117    61    62    2
   118    17    19    1
   119    91    92    1
   120    91    93    1
   121    59    53   am
   122   124   123    1
   123    53    52    1
   124    67    70    1
   125   123   122    1
   126    51    52    1
   127    26    27    1
   128    26    25    1
   129    23    24    2
   130    23    22    1
   131    52    55    1
   132    70    72    1
   133    70    71    1
   134    27    29   am
   135    27    28    2
   136   122   119    1
   137    22    25    1
   138    22    21    1
   139   149   148    1
   140    71    73    1
   141    55    57    1
   142    55    56    1
   143   119   118    1
   144   119   120    1
   145   148   147    1
   146   134   132   ar
   147    56    58    1
   148   147   146    1
   149   127   120   am
   150   127   128    1
   151   130   129    2
   152   120   121    2
   153   131   132    1
   154   131   128    1
   155   132   133   ar
   156   193   191    1
   157   146   145    1
   158   128   129    1
   159   192   191    1
   160   145   142    1
   161   191   188    1
   162   144   143    2
   163   142   143    1
   164   142   141    1
   165   188   187    1
   166   188   189    1
   167   177   176   ar
   168   197   196    2
   169   178   176   ar
   170   187   181   am
   171   174   173    2
   172   189   194   am
   173   189   190    2
   174   176   175    1
   175   196   195    1
   176   194   195    1
   177   181   182    2
   178   181   180    1
   179   195   198    1
   180   173   172    1
   181   173   179   am
   182   175   172    1
   183   180   179    1
   184   180   183    1
   185   186   185    1
   186   172   171    1
   187   185   184    1
   188   198   199    1
   189   183   184    1
   190   199   200    1
   191   200   201    1
   192   201   202    1
