@<TRIPOS>MOLECULE
tmp/2pxxA00.pdb
 209 206 0 0 0
SMALL
GASTEIGER

@<TRIPOS>ATOM
      1  N          4.0990   19.7820   24.9960 N.3     5  ARG5       -0.1245
      2  CA         5.4680   19.3450   24.8040 C.3     5  ARG5        0.1563
      3  C          6.0240   18.5680   26.0100 C.2     5  ARG5        0.2260
      4  O          6.9630   17.7940   25.8580 O.2     5  ARG5       -0.2867
      5  CB         6.4200   20.5360   24.5290 C.3     5  ARG5        0.0307
      6  CG         6.2110   21.2070   23.1910 C.3     5  ARG5        0.0489
      7  CD         7.4370   22.0280   22.8110 C.3     5  ARG5        0.2205
      8  NE         7.0750   23.1280   21.9220 N.pl3   5  ARG5       -0.0865
      9  CZ         7.7770   23.5270   20.8650 C.cat   5  ARG5        0.5346
     10  NH1        8.9150   22.9230   20.5450 N.pl3   5  ARG5        0.1354
     11  NH2        7.3360   24.5410   20.1290 N.pl3   5  ARG5        0.1354
     12  N          1.3230   14.8700   30.0780 N.3    10  TRP10      -0.1241
     13  CA         0.8600   13.5780   29.6400 C.3    10  TRP10       0.1605
     14  C          0.7470   12.5960   30.7870 C.2    10  TRP10       0.2264
     15  O         -0.2450   11.8970   30.8790 O.2    10  TRP10      -0.2867
     16  CB         1.7480   13.0650   28.5290 C.3    10  TRP10       0.0550
     17  CG         1.7120   13.9500   27.3160 C.ar   10  TRP10       0.0003
     18  CD1        2.6550   14.8640   26.9240 C.ar   10  TRP10       0.0946
     19  CD2        0.6280   14.0610   26.3650 C.ar   10  TRP10       0.0152
     20  NE1        2.2270   15.5210   25.7800 N.ar   10  TRP10      -0.2442
     21  CE2        0.9860   15.0530   25.4170 C.ar   10  TRP10       0.0810
     22  CE3       -0.5960   13.4210   26.2260 C.ar   10  TRP10       0.0012
     23  CZ2        0.1300   15.4000   24.3250 C.ar   10  TRP10       0.0191
     24  CZ3       -1.4210   13.7810   25.1570 C.ar   10  TRP10       0.0001
     25  CH2       -1.0390   14.7540   24.2330 C.ar   10  TRP10       0.0015
     26  N         -2.7950   10.8200   31.7150 N.3    14  TYR14      -0.1241
     27  CA        -2.9220    9.3850   31.5680 C.3    14  TYR14       0.1605
     28  C         -3.0920    8.6200   32.8820 C.2    14  TYR14       0.2264
     29  O         -3.1440    7.4030   32.8670 O.2    14  TYR14      -0.2867
     30  CB        -1.7320    8.8210   30.7860 C.3    14  TYR14       0.0534
     31  CG        -1.6660    9.2280   29.3030 C.ar   14  TYR14      -0.0201
     32  CD1       -2.7890    9.1790   28.5110 C.ar   14  TYR14      -0.0009
     33  CD2       -0.4540    9.5950   28.7070 C.ar   14  TYR14      -0.0009
     34  CE1       -2.7440    9.4790   27.1540 C.ar   14  TYR14       0.0417
     35  CE2       -0.3630    9.9210   27.3680 C.ar   14  TYR14       0.0417
     36  CZ        -1.5280    9.8710   26.5770 C.ar   14  TYR14       0.1957
     37  OH        -1.4960   10.1750   25.2190 O.3    14  TYR14      -0.2866
     38  N         -8.3760    6.5200   23.4740 N.3    23  TYR23      -0.1227
     39  CA        -8.5640    7.8220   22.8660 C.3    23  TYR23       0.1736
     40  C         -7.6080    7.9440   21.7020 C.2    23  TYR23       0.2595
     41  O         -6.4320    7.5920   21.8340 O.2    23  TYR23      -0.2718
     42  CB        -8.2970    8.9810   23.8480 C.3    23  TYR23       0.0548
     43  CG        -8.5950   10.2820   23.1900 C.ar   23  TYR23      -0.0200
     44  CD1       -9.9140   10.6870   23.0110 C.ar   23  TYR23      -0.0009
     45  CD2       -7.5830   11.0650   22.6550 C.ar   23  TYR23      -0.0009
     46  CE1      -10.2190   11.8740   22.3370 C.ar   23  TYR23       0.0417
     47  CE2       -7.8700   12.2570   21.9870 C.ar   23  TYR23       0.0417
     48  CZ        -9.1930   12.6530   21.8350 C.ar   23  TYR23       0.1957
     49  OH        -9.5050   13.8310   21.1720 O.3    23  TYR23      -0.2866
     50  N         -8.1090    8.4360   20.5640 N.am   24  ASP24      -0.1960
     51  CA        -7.3070    8.6020   19.3710 C.3    24  ASP24       0.1840
     52  C         -7.3520   10.0380   18.8370 C.2    24  ASP24       0.2622
     53  O         -8.4270   10.5840   18.5760 O.2    24  ASP24      -0.2715
     54  CB        -7.8060    7.6400   18.2960 C.3    24  ASP24       0.1450
     55  CG        -7.1510    6.3030   18.3890 C.2    24  ASP24       0.3671
     56  OD1       -6.1170    6.1070   17.7300 O.co2  24  ASP24      -0.2456
     57  OD2       -7.6320    5.4640   19.1720 O.co2  24  ASP24      -0.2456
     58  N         -6.1700   10.6360   18.7010 N.am   25  TRP25      -0.1974
     59  CA        -5.9940   11.9340   18.0110 C.3    25  TRP25       0.1640
     60  C         -6.0100   11.7930   16.5070 C.2    25  TRP25       0.2290
     61  O         -5.4770   10.8520   15.9750 O.2    25  TRP25      -0.2864
     62  CB        -4.6500   12.5560   18.3820 C.3    25  TRP25       0.0576
     63  CG        -4.5300   13.0200   19.7790 C.ar   25  TRP25       0.0006
     64  CD1       -4.3830   12.2570   20.9040 C.ar   25  TRP25       0.0946
     65  CD2       -4.5430   14.3870   20.2230 C.ar   25  TRP25       0.0152
     66  NE1       -4.3080   13.0620   22.0110 N.ar   25  TRP25      -0.2442
     67  CE2       -4.3910   14.3690   21.6260 C.ar   25  TRP25       0.0810
     68  CE3       -4.6510   15.6250   19.5720 C.ar   25  TRP25       0.0012
     69  CZ2       -4.3560   15.5580   22.4040 C.ar   25  TRP25       0.0191
     70  CZ3       -4.6150   16.7960   20.3410 C.ar   25  TRP25       0.0001
     71  CH2       -4.4770   16.7520   21.7370 C.ar   25  TRP25       0.0015
     72  N          5.3260    1.9110   16.8230 N.3    48  VAL48      -0.1231
     73  CA         4.3730    3.0010   16.9200 C.3    48  VAL48       0.1692
     74  C          4.9260    4.0320   17.9290 C.2    48  VAL48       0.2592
     75  O          5.1910    3.7020   19.1010 O.2    48  VAL48      -0.2718
     76  CB         3.0170    2.5180   17.3850 C.3    48  VAL48       0.0266
     77  CG1        2.0460    3.7190   17.5810 C.3    48  VAL48       0.0020
     78  CG2        2.4520    1.5850   16.4050 C.3    48  VAL48       0.0020
     79  N          5.1790    5.2430   17.4390 N.am   49  LEU49      -0.1966
     80  CA         5.7830    6.3160   18.2350 C.3    49  LEU49       0.1728
     81  C          4.7340    7.1390   18.9690 C.2    49  LEU49       0.2617
     82  O          3.7350    7.5450   18.3760 O.2    49  LEU49      -0.2715
     83  CB         6.5920    7.2850   17.3490 C.3    49  LEU49       0.0311
     84  CG         7.6200    6.7300   16.3910 C.3    49  LEU49       0.0022
     85  CD1        8.2530    7.8800   15.6360 C.3    49  LEU49       0.0001
     86  CD2        8.6710    5.9270   17.1700 C.3    49  LEU49       0.0001
     87  N          5.0070    7.4450   20.2590 N.am   50  GLY50      -0.1940
     88  CA         4.1250    8.2430   21.0770 C.3    50  GLY50       0.2014
     89  C          2.7130    7.7060   21.0660 C.2    50  GLY50       0.2639
     90  O          1.7590    8.4270   20.8440 O.2    50  GLY50      -0.2714
     91  N          2.6090    6.4280   21.4210 N.am   51  CYS51      -0.1953
     92  CA         1.4010    5.6450   21.2970 C.3    51  CYS51       0.1843
     93  C          0.2230    6.1990   22.1430 C.2    51  CYS51       0.2626
     94  O         -0.9340    6.0020   21.7810 O.2    51  CYS51      -0.2714
     95  CB         1.7080    4.2020   21.6420 C.3    51  CYS51       0.0997
     96  SG         2.2170    3.8730   23.3360 S.3    51  CYS51      -0.0797
     97  N          0.5130    6.8540   23.2620 N.am   52  GLY52      -0.1940
     98  CA        -0.5380    7.2580   24.1860 C.3    52  GLY52       0.2014
     99  C         -1.4680    6.1090   24.5230 C.2    52  GLY52       0.2639
    100  O         -1.0240    4.9430   24.5930 O.2    52  GLY52      -0.2714
    101  N         -2.7570    6.4310   24.7290 N.am   53  ASN53      -0.1958
    102  CA        -3.7800    5.4220   24.9600 C.3    53  ASN53       0.1819
    103  C         -4.6420    5.2130   23.7330 C.2    53  ASN53       0.2622
    104  O         -5.8180    4.8230   23.8320 O.2    53  ASN53      -0.2715
    105  CB        -4.6330    5.7300   26.2100 C.3    53  ASN53       0.1195
    106  CG        -5.4840    6.9680   26.0520 C.2    53  ASN53       0.2630
    107  OD1       -5.1740    7.8600   25.2860 O.2    53  ASN53      -0.2716
    108  ND2       -6.5630    7.0350   26.8170 N.am   53  ASN53      -0.0877
    109  N         -4.0410    5.3730   22.5550 N.am   54  SER54      -0.1950
    110  CA        -4.6500    5.0480   21.2720 C.3    54  SER54       0.1924
    111  C         -4.9670    3.5460   21.1330 C.2    54  SER54       0.2314
    112  O         -4.2880    2.6480   21.7010 O.2    54  SER54      -0.2863
    113  CB        -3.7060    5.5020   20.1580 C.3    54  SER54       0.2116
    114  OG        -4.0710    5.0530   18.8580 O.3    54  SER54      -0.2180
    115  N         -4.8280    2.2400   18.1500 N.3    56  LEU56      -0.1245
    116  CA        -4.1660    1.8810   16.8710 C.3    56  LEU56       0.1561
    117  C         -3.3780    0.6050   16.9840 C.2    56  LEU56       0.2260
    118  O         -3.5120   -0.2920   16.1210 O.2    56  LEU56      -0.2867
    119  CB        -3.2880    3.0390   16.3430 C.3    56  LEU56       0.0270
    120  CG        -2.4330    2.7390   15.1170 C.3    56  LEU56       0.0019
    121  CD1       -3.2950    2.3560   13.9320 C.3    56  LEU56       0.0001
    122  CD2       -1.5610    3.9480   14.7620 C.3    56  LEU56       0.0001
    123  N          6.2730    5.4990   24.2400 N.3    72  ASP72      -0.1225
    124  CA         5.8040    6.8320   24.7040 C.3    72  ASP72       0.1805
    125  C          6.7000    7.2700   25.8490 C.2    72  ASP72       0.2597
    126  O          7.2170    6.4030   26.5850 O.2    72  ASP72      -0.2718
    127  CB         4.3380    6.7380   25.1730 C.3    72  ASP72       0.1424
    128  CG         3.6440    8.0640   25.1300 C.2    72  ASP72       0.3668
    129  OD1        3.9920    8.9080   25.9870 O.co2  72  ASP72      -0.2456
    130  OD2        2.7800    8.2650   24.2470 O.co2  72  ASP72      -0.2456
    131  N          6.9320    8.5800   26.0150 N.am   73  TYR73      -0.1976
    132  CA         7.7680    9.0300   27.1010 C.3    73  TYR73       0.1639
    133  C          6.9900    9.1370   28.4260 C.2    73  TYR73       0.2290
    134  O          7.5620    9.2900   29.4680 O.2    73  TYR73      -0.2864
    135  CB         8.5730   10.2930   26.7250 C.3    73  TYR73       0.0560
    136  CG         7.8180   11.6350   26.6000 C.ar   73  TYR73      -0.0198
    137  CD1        6.3960   11.7320   26.6110 C.ar   73  TYR73      -0.0009
    138  CD2        8.5310   12.8110   26.4600 C.ar   73  TYR73      -0.0009
    139  CE1        5.7620   12.9610   26.4840 C.ar   73  TYR73       0.0417
    140  CE2        7.8930   14.0190   26.3520 C.ar   73  TYR73       0.0417
    141  CZ         6.5250   14.1020   26.3480 C.ar   73  TYR73       0.1957
    142  OH         5.8710   15.3350   26.2490 O.3    73  TYR73      -0.2866
    143  N          9.9920    5.5100   26.4170 N.3    96  MET96      -0.1230
    144  CA        11.0690    5.9650   25.5530 C.3    96  MET96       0.1702
    145  C         10.7850    7.3510   25.0540 C.2    96  MET96       0.2592
    146  O          9.6430    7.6730   24.7480 O.2    96  MET96      -0.2718
    147  CB        11.1340    5.0290   24.3320 C.3    96  MET96       0.0401
    148  CG        12.4040    5.0180   23.6200 C.3    96  MET96       0.0596
    149  SD        12.4960    3.6740   22.3980 S.3    96  MET96      -0.1393
    150  CE        12.4170    2.2100   23.4520 C.3    96  MET96       0.0692
    151  N         11.8350    8.1680   24.9170 N.am   97  ASP97      -0.1960
    152  CA        11.7070    9.4400   24.2260 C.3    97  ASP97       0.1840
    153  C         12.0020    9.1580   22.7430 C.2    97  ASP97       0.2622
    154  O         13.0280    8.5900   22.4080 O.2    97  ASP97      -0.2715
    155  CB        12.6810   10.4810   24.7930 C.3    97  ASP97       0.1450
    156  CG        12.3420   11.8970   24.3390 C.2    97  ASP97       0.3671
    157  OD1       12.1840   12.1360   23.1360 O.co2  97  ASP97      -0.2456
    158  OD2       12.2180   12.7780   25.2140 O.co2  97  ASP97      -0.2456
    159  N         11.1280    9.5410   21.8700 N.am   98  VAL98      -0.1963
    160  CA        11.2770    9.2370   20.4440 C.3    98  VAL98       0.1727
    161  C         12.4020   10.0130   19.7520 C.2    98  VAL98       0.2616
    162  O         12.7230    9.7090   18.6110 O.2    98  VAL98      -0.2715
    163  CB         9.9520    9.4300   19.6780 C.3    98  VAL98       0.0290
    164  CG1        8.8430    8.4370   20.2180 C.3    98  VAL98       0.0023
    165  CG2        9.5040   10.8800   19.7380 C.3    98  VAL98       0.0023
    166  N         13.0210   10.9630   20.4700 N.am   99  ARG99      -0.1977
    167  CA        14.2090   11.6450   19.9810 C.3    99  ARG99       0.1597
    168  C         15.4530   10.7660   20.1340 C.2    99  ARG99       0.2287
    169  O         16.4920   11.0710   19.5400 O.2    99  ARG99      -0.2864
    170  CB        14.4080   12.9510   20.7230 C.3    99  ARG99       0.0334
    171  CG        13.3470   14.0040   20.4060 C.3    99  ARG99       0.0492
    172  CD        13.2690   15.0990   21.4160 C.3    99  ARG99       0.2205
    173  NE        14.5630   15.7390   21.5900 N.pl3  99  ARG99      -0.0865
    174  CZ        14.8720   16.5400   22.5930 C.cat  99  ARG99       0.5346
    175  NH1       13.9750   16.8250   23.5340 N.pl3  99  ARG99       0.1354
    176  NH2       16.0870   17.0790   22.6520 N.pl3  99  ARG99       0.1354
    177  N          1.2120    9.0470   14.9970 N.3   114  LYS114     -0.1231
    178  CA        -0.0350    9.7920   14.8550 C.3   114  LYS114      0.1693
    179  C         -0.0770   10.8020   15.9950 C.2   114  LYS114      0.2593
    180  O         -0.2670   10.4390   17.1300 O.2   114  LYS114     -0.2718
    181  CB        -1.2700    8.8540   14.8540 C.3   114  LYS114      0.0285
    182  CG        -2.5620    9.6130   14.7010 C.3   114  LYS114      0.0035
    183  CD        -3.6990    8.7410   14.1420 C.3   114  LYS114      0.0206
    184  CE        -4.0670    7.6290   15.0860 C.3   114  LYS114      0.1093
    185  NZ        -4.7960    8.1930   16.2990 N.3   114  LYS114     -0.1314
    186  N          0.1250   12.0700   15.6640 N.am  115  GLY115     -0.1942
    187  CA        -0.0120   13.1480   16.6140 C.3   115  GLY115      0.2014
    188  C          1.1830   13.3620   17.5090 C.2   115  GLY115      0.2639
    189  O          1.1230   14.2190   18.4050 O.2   115  GLY115     -0.2714
    190  N          2.2720   12.6190   17.2920 N.am  116  THR116     -0.1950
    191  CA         3.4550   12.7500   18.1680 C.3   116  THR116      0.1897
    192  C          4.3490   13.9060   17.7840 C.2   116  THR116      0.2313
    193  O          4.7730   14.6580   18.6600 O.2   116  THR116     -0.2863
    194  CB         4.2100   11.4410   18.2280 C.3   116  THR116      0.1794
    195  OG1        3.2900   10.4490   18.6800 O.3   116  THR116     -0.2208
    196  CG2        5.3980   11.5110   19.1870 C.3   116  THR116      0.0378
    197  N          2.8490   17.0280   19.0000 N.3   119  ALA119     -0.1231
    198  CA         3.2380   17.4010   20.3470 C.3   119  ALA119      0.1694
    199  C          4.5630   18.1550   20.3820 C.2   119  ALA119      0.2591
    200  O          4.6760   19.1930   21.0520 O.2   119  ALA119     -0.2718
    201  CB         3.2720   16.1840   21.2720 C.3   119  ALA119      0.0304
    202  N          5.5700   17.6590   19.6540 N.am  120  LEU120     -0.1980
    203  CA         6.8660   18.3280   19.5960 C.3   120  LEU120      0.1596
    204  C          6.7810   19.7460   19.0580 C.2   120  LEU120      0.2287
    205  O          7.6090   20.6020   19.4150 O.2   120  LEU120     -0.2864
    206  CB         7.8660   17.5530   18.7150 C.3   120  LEU120      0.0297
    207  CG         8.7120   16.5070   19.4290 C.3   120  LEU120      0.0022
    208  CD1        7.8420   15.3830   19.8920 C.3   120  LEU120      0.0001
    209  CD2        9.8490   15.9960   18.5300 C.3   120  LEU120      0.0001
@<TRIPOS>BOND
     1   121   120    1
     2   183   182    1
     3   183   184    1
     4   182   181    1
     5   122   120    1
     6   181   178    1
     7   178   177    1
     8   178   179    1
     9   184   185    1
    10   120   119    1
    11    85    84    1
    12   186   179   am
    13   186   187    1
    14    61    60    2
    15   179   180    2
    16   118   117    2
    17   119   116    1
    18    84    86    1
    19    84    83    1
    20    78    76    1
    21    60    59    1
    22   187   188    1
    23    72    73    1
    24   116   117    1
    25   116   115    1
    26    73    76    1
    27    73    74    1
    28   190   188   am
    29   190   191    1
    30    83    80    1
    31    76    77    1
    32    79    74   am
    33    79    80    1
    34   188   189    2
    35    56    55   ar
    36   192   191    1
    37   192   193    2
    38    74    75    2
    39    59    62    1
    40    59    58    1
    41   191   194    1
    42   194   195    1
    43   194   196    1
    44    80    81    1
    45    54    55    1
    46    54    51    1
    47    82    81    2
    48    62    63    1
    49    55    57   ar
    50   209   207    1
    51    53    52    2
    52   162   161    2
    53    58    52   am
    54   206   207    1
    55   206   203    1
    56    52    51    1
    57   114   113    1
    58    81    87   am
    59   197   198    1
    60   204   205    2
    61   204   203    1
    62    51    50    1
    63   207   208    1
    64   169   168    2
    65    68    65   ar
    66    68    70   ar
    67   203   202    1
    68   202   199   am
    69   163   165    1
    70   163   164    1
    71   163   160    1
    72   161   160    1
    73   161   166   am
    74    63    65   ar
    75    63    64   ar
    76   167   168    1
    77   167   166    1
    78   167   170    1
    79    11     9    1
    80   113   110    1
    81    65    67   ar
    82    87    88    1
    83    70    71   ar
    84   198   199    1
    85   198   201    1
    86   199   200    2
    87   171   170    1
    88   171   172    1
    89   160   159    1
    90    10     9    1
    91    50    40   am
    92    90    89    2
    93     9     8    2
    94    64    66   ar
    95    89    88    1
    96    89    91   am
    97   111   110    1
    98   111   112    2
    99    49    48    1
   100   110   109    1
   101    92    91    1
   102    92    95    1
   103    92    93    1
   104   172   173    1
   105   173   174    2
   106    67    66   ar
   107    67    69   ar
   108    95    96    1
   109    40    41    2
   110    40    39    1
   111    71    69   ar
   112    94    93    2
   113    48    47   ar
   114    48    46   ar
   115   159   153   am
   116     8     7    1
   117    47    45   ar
   118    93    97   am
   119    46    44   ar
   120   149   150    1
   121   149   148    1
   122   154   153    2
   123   109   103   am
   124   174   176    1
   125   174   175    1
   126    45    43   ar
   127   153   152    1
   128     7     6    1
   129    39    38    1
   130    39    42    1
   131    44    43   ar
   132   157   156   ar
   133    43    42    1
   134     6     5    1
   135    97    98    1
   136   148   147    1
   137   103   104    2
   138   103   102    1
   139    98    99    1
   140   152   155    1
   141   152   151    1
   142    25    23   ar
   143    25    24   ar
   144   123   124    1
   145   130   128   ar
   146    23    21   ar
   147   147   144    1
   148   156   155    1
   149   156   158   ar
   150    99   100    2
   151    99   101   am
   152     5     2    1
   153   124   127    1
   154   124   125    1
   155   101   102    1
   156   146   145    2
   157     2     1    1
   158     2     3    1
   159   151   145   am
   160   102   105    1
   161   145   144    1
   162   128   127    1
   163   128   129   ar
   164    24    22   ar
   165    37    36    1
   166   107   106    2
   167    21    20   ar
   168    21    19   ar
   169   144   143    1
   170    20    18   ar
   171   125   131   am
   172   125   126    2
   173     4     3    2
   174   131   132    1
   175   106   105    1
   176   106   108   am
   177    22    19   ar
   178   142   141    1
   179   141   140   ar
   180   141   139   ar
   181   140   138   ar
   182    19    17   ar
   183   138   136   ar
   184   139   137   ar
   185    36    34   ar
   186    36    35   ar
   187   136   137   ar
   188   136   135    1
   189   135   132    1
   190    18    17   ar
   191   132   133    1
   192    34    32   ar
   193    17    16    1
   194    35    33   ar
   195   133   134    2
   196    32    31   ar
   197    16    13    1
   198    33    31   ar
   199    31    30    1
   200    13    12    1
   201    13    14    1
   202    30    27    1
   203    14    15    2
   204    27    26    1
   205    27    28    1
   206    29    28    2
