@<TRIPOS>MOLECULE
tmp/2pxzA00.pdb
 84 77 0 0 0
SMALL
GASTEIGER

@<TRIPOS>ATOM
      1  N         39.1460    3.0600    3.3520 N.3    57  ARG57      -0.1245
      2  CA        39.3660    1.7850    2.6800 C.3    57  ARG57       0.1563
      3  C         39.5240    1.9600    1.1650 C.2    57  ARG57       0.2260
      4  O         39.2020    3.0040    0.6230 O.2    57  ARG57      -0.2867
      5  CB        38.2280    0.8360    2.9760 C.3    57  ARG57       0.0307
      6  CG        38.3580    0.0320    4.2820 C.3    57  ARG57       0.0489
      7  CD        37.0150   -0.6650    4.5370 C.3    57  ARG57       0.2205
      8  NE        35.8890    0.2960    4.4870 N.pl3  57  ARG57      -0.0865
      9  CZ        35.0120    0.4640    3.4740 C.cat  57  ARG57       0.5346
     10  NH1       35.0450   -0.2750    2.3400 N.pl3  57  ARG57       0.1354
     11  NH2       34.0570    1.3790    3.6080 N.pl3  57  ARG57       0.1354
     12  N         26.2090   -5.4200   10.1470 N.3   224  HIS224     -0.1241
     13  CA        26.8940   -4.1370   10.2000 C.3   224  HIS224      0.1621
     14  C         26.0520   -3.2130   11.0830 C.2   224  HIS224      0.2264
     15  O         25.1790   -2.4370   10.6220 O.2   224  HIS224     -0.2867
     16  CB        27.1610   -3.5800    8.7620 C.3   224  HIS224      0.0745
     17  CG        27.9960   -2.3350    8.7400 C.ar  224  HIS224      0.0817
     18  ND1       27.8630   -1.3500    7.7780 N.ar  224  HIS224     -0.2268
     19  CD2       28.9520   -1.8920    9.5890 C.ar  224  HIS224      0.1154
     20  CE1       28.6980   -0.3550    8.0370 C.ar  224  HIS224      0.1986
     21  NE2       29.3940   -0.6700    9.1130 N.ar  224  HIS224     -0.2212
     22  N         24.8190    2.7630    7.1400 N.3   241  LEU241     -0.1231
     23  CA        26.0750    2.9280    6.4210 C.3   241  LEU241      0.1693
     24  C         27.0240    3.8570    7.2240 C.2   241  LEU241      0.2592
     25  O         26.7360    4.2710    8.3890 O.2   241  LEU241     -0.2718
     26  CB        25.7980    3.4200    4.9950 C.3   241  LEU241      0.0284
     27  CG        25.0740    2.3230    4.1950 C.3   241  LEU241      0.0019
     28  CD1       24.3570    2.9430    3.0160 C.3   241  LEU241      0.0001
     29  CD2       26.0690    1.2200    3.7600 C.3   241  LEU241      0.0001
     30  N         28.1820    4.1110    6.6570 N.am  242  SER242     -0.1952
     31  CA        29.2130    4.8520    7.3700 C.3   242  SER242      0.1924
     32  C         28.7520    6.2790    7.5830 C.2   242  SER242      0.2314
     33  O         28.3020    6.9280    6.6200 O.2   242  SER242     -0.2863
     34  CB        30.4960    4.9200    6.5180 C.3   242  SER242      0.2116
     35  OG        31.5210    5.5580    7.2540 O.3   242  SER242     -0.2180
     36  N         21.5900    5.4380    1.9210 N.3   380  THR380     -0.1218
     37  CA        21.9860    6.6930    2.5440 C.3   380  THR380      0.1862
     38  C         22.3240    7.6990    1.4390 C.2   380  THR380      0.2287
     39  O         22.4010    7.3360    0.2660 O.2   380  THR380     -0.2866
     40  CB        23.1810    6.5370    3.5020 C.3   380  THR380      0.1770
     41  OG1       23.2140    7.6710    4.3740 O.3   380  THR380     -0.2211
     42  CG2       24.5460    6.4070    2.7470 C.3   380  THR380      0.0375
     43  N         24.7500   11.5720    0.4870 N.3   382  LYS382     -0.1245
     44  CA        25.7200   12.6120    0.8450 C.3   382  LYS382      0.1561
     45  C         25.5140   13.9240    0.0500 C.2   382  LYS382      0.2260
     46  O         25.1170   13.8850   -1.1340 O.2   382  LYS382     -0.2867
     47  CB        27.1940   12.0860    0.6430 C.3   382  LYS382      0.0271
     48  CG        27.6460   10.8610    1.4310 C.3   382  LYS382      0.0035
     49  CD        27.6120   11.2720    2.8580 C.3   382  LYS382      0.0206
     50  CE        27.8740    9.9030    3.5350 C.3   382  LYS382      0.1093
     51  NZ        27.1190    9.8900    4.7970 N.3   382  LYS382     -0.1314
     52  N         23.5750    6.6480   -2.1460 N.3   390  THR390     -0.1218
     53  CA        24.2160    5.3460   -2.0580 C.3   390  THR390      0.1862
     54  C         23.1420    4.3390   -1.6900 C.2   390  THR390      0.2287
     55  O         22.4340    4.5150   -0.6770 O.2   390  THR390     -0.2866
     56  CB        25.2590    5.3230   -0.9220 C.3   390  THR390      0.1770
     57  OG1       26.3790    6.1740   -1.2560 O.3   390  THR390     -0.2211
     58  CG2       25.7450    3.9190   -0.6700 C.3   390  THR390      0.0375
     59  N         23.3770    0.6490   -0.5690 N.3   392  SER392     -0.1217
     60  CA        24.3230   -0.4030   -0.2160 C.3   392  SER392      0.1889
     61  C         23.6580   -1.5180    0.5520 C.2   392  SER392      0.2288
     62  O         23.3800   -1.3880    1.7370 O.2   392  SER392     -0.2866
     63  CB        25.5060    0.1840    0.5670 C.3   392  SER392      0.2089
     64  OG        26.4540   -0.8080    0.8750 O.3   392  SER392     -0.2183
     65  N         25.5310   -2.3780    4.3140 N.3   396  GLY396     -0.1225
     66  CA        26.9710   -2.6100    4.2630 C.3   396  GLY396      0.1811
     67  C         27.4040   -3.6200    3.2340 C.2   396  GLY396      0.2280
     68  O         27.9910   -4.6480    3.5840 O.2   396  GLY396     -0.2866
     69  N         29.7130   -3.3920    0.9760 N.3   398  ALA398     -0.1231
     70  CA        31.1870   -3.4490    0.9120 C.3   398  ALA398      0.1694
     71  C         31.8130   -4.6330    1.6860 C.2   398  ALA398      0.2592
     72  O         32.9400   -5.0270    1.3890 O.2   398  ALA398     -0.2718
     73  CB        31.7730   -2.1310    1.4010 C.3   398  ALA398      0.0304
     74  N         31.1080   -5.2010    2.6710 N.am  399  PHE399     -0.1976
     75  CA        31.6760   -6.2500    3.5500 C.3   399  PHE399      0.1639
     76  C         30.9890   -7.5720    3.3870 C.2   399  PHE399      0.2290
     77  O         31.1870   -8.5240    4.1600 O.2   399  PHE399     -0.2864
     78  CB        31.5890   -5.7910    5.0030 C.3   399  PHE399      0.0560
     79  CG        31.9000   -4.3080    5.1600 C.ar  399  PHE399     -0.0200
     80  CD1       33.1640   -3.8000    4.7740 C.ar  399  PHE399     -0.0042
     81  CD2       30.9190   -3.4170    5.6340 C.ar  399  PHE399     -0.0042
     82  CE1       33.4290   -2.4560    4.8700 C.ar  399  PHE399     -0.0003
     83  CE2       31.1930   -2.0770    5.7430 C.ar  399  PHE399     -0.0003
     84  CZ        32.4540   -1.6010    5.3760 C.ar  399  PHE399     -0.0000
@<TRIPOS>BOND
     1    52    53    1
     2    53    54    1
     3    53    56    1
     4    54    55    2
     5    57    56    1
     6    46    45    2
     7    56    58    1
     8    59    60    1
     9    60    61    1
    10    60    63    1
    11    45    44    1
    12    39    38    2
    13    43    44    1
    14    61    62    2
    15    63    64    1
    16     4     3    2
    17    47    44    1
    18    47    48    1
    19    70    69    1
    20    70    73    1
    21    70    71    1
    22     3     2    1
    23    72    71    2
    24    48    49    1
    25    38    37    1
    26    71    74   am
    27    36    37    1
    28    10     9    1
    29    37    40    1
    30    74    75    1
    31     2     5    1
    32     2     1    1
    33    42    40    1
    34    49    50    1
    35     5     6    1
    36    28    27    1
    37    67    68    2
    38    67    66    1
    39    76    75    1
    40    76    77    2
    41     9    11    1
    42     9     8    2
    43    40    41    1
    44    50    51    1
    45    75    78    1
    46    29    27    1
    47    27    26    1
    48    66    65    1
    49     6     7    1
    50     8     7    1
    51    80    82   ar
    52    80    79   ar
    53    82    84   ar
    54    26    23    1
    55    78    79    1
    56    79    81   ar
    57    84    83   ar
    58    81    83   ar
    59    23    22    1
    60    23    24    1
    61    34    35    1
    62    34    31    1
    63    33    32    2
    64    30    24   am
    65    30    31    1
    66    24    25    2
    67    31    32    1
    68    18    20   ar
    69    18    17   ar
    70    20    21   ar
    71    17    16    1
    72    17    19   ar
    73    16    13    1
    74    21    19   ar
    75    12    13    1
    76    13    14    1
    77    15    14    2
