@<TRIPOS>MOLECULE
tmp/2pyeA03.pdb
 91 87 0 0 0
SMALL
GASTEIGER

@<TRIPOS>ATOM
      1  N        -27.0210   -0.6220   48.2590 N.3    27  TYR27      -0.1241
      2  CA       -27.2170   -0.2730   49.6410 C.3    27  TYR27       0.1605
      3  C        -26.7490    1.1180   49.9920 C.2    27  TYR27       0.2264
      4  O        -25.8430    1.6390   49.3770 O.2    27  TYR27      -0.2867
      5  CB       -26.3860   -1.2270   50.5530 C.3    27  TYR27       0.0534
      6  CG       -26.9380   -2.6270   50.7690 C.ar   27  TYR27      -0.0201
      7  CD1      -26.6340   -3.6700   49.9060 C.ar   27  TYR27      -0.0009
      8  CD2      -27.7370   -2.9080   51.8780 C.ar   27  TYR27      -0.0009
      9  CE1      -27.1390   -4.9560   50.1290 C.ar   27  TYR27       0.0417
     10  CE2      -28.2290   -4.1730   52.1050 C.ar   27  TYR27       0.0417
     11  CZ       -27.9290   -5.1990   51.2270 C.ar   27  TYR27       0.1957
     12  OH       -28.4380   -6.4730   51.4610 O.3    27  TYR27      -0.2866
     13  N        -26.8310    0.4170   55.9660 N.3    30  ASP30      -0.1225
     14  CA       -27.2770   -0.9840   56.0970 C.3    30  ASP30       0.1805
     15  C        -28.6640   -1.2270   55.5280 C.2    30  ASP30       0.2598
     16  O        -29.2920   -2.2300   55.8550 O.2    30  ASP30      -0.2718
     17  CB       -27.2640   -1.3980   57.5700 C.3    30  ASP30       0.1424
     18  CG       -25.8760   -1.4290   58.1530 C.2    30  ASP30       0.3668
     19  OD1      -24.9360   -1.8310   57.4430 O.co2  30  ASP30      -0.2456
     20  OD2      -25.7320   -1.1080   59.3350 O.co2  30  ASP30      -0.2456
     21  N        -29.1190   -0.3250   54.6570 N.am   31  THR31      -0.1939
     22  CA       -30.4470   -0.4040   54.0420 C.3    31  THR31       0.2028
     23  C        -30.3260   -0.6350   52.5330 C.2    31  THR31       0.2642
     24  O        -29.6390    0.1190   51.8500 O.2    31  THR31      -0.2714
     25  CB       -31.2380    0.9310   54.2730 C.3    31  THR31       0.1808
     26  OG1      -31.2780    1.2580   55.6780 O.3    31  THR31      -0.2208
     27  CG2      -32.6390    0.8290   53.7340 C.3    31  THR31       0.0379
     28  N        -30.9830   -1.6880   52.0280 N.am   32  GLN32      -0.1976
     29  CA       -30.9610   -2.0260   50.6030 C.3    32  GLN32       0.1601
     30  C        -31.9990   -1.2050   49.9090 C.2    32  GLN32       0.2287
     31  O        -33.1510   -1.2170   50.3200 O.2    32  GLN32      -0.2864
     32  CB       -31.2830   -3.4970   50.3610 C.3    32  GLN32       0.0394
     33  CG       -31.2470   -3.8230   48.8790 C.3    32  GLN32       0.0908
     34  CD       -31.5250   -5.2390   48.5560 C.2    32  GLN32       0.2608
     35  OE1      -31.4760   -6.1200   49.4160 O.2    32  GLN32      -0.2717
     36  NE2      -31.7970   -5.4920   47.2890 N.am   32  GLN32      -0.0878
     37  N        -32.6730   -3.3990   43.3890 N.3    35  ARG35      -0.1245
     38  CA       -32.5500   -4.7930   42.9900 C.3    35  ARG35       0.1563
     39  C        -32.6060   -4.9480   41.4940 C.2    35  ARG35       0.2260
     40  O        -33.2020   -4.1280   40.8100 O.2    35  ARG35      -0.2867
     41  CB       -33.7740   -5.5870   43.5490 C.3    35  ARG35       0.0307
     42  CG       -34.0460   -6.9670   42.8400 C.3    35  ARG35       0.0489
     43  CD       -35.4780   -7.5150   43.0310 C.3    35  ARG35       0.2205
     44  NE       -35.7320   -8.1750   44.2980 N.pl3  35  ARG35      -0.0865
     45  CZ       -36.9440   -8.5840   44.6990 C.cat  35  ARG35       0.5346
     46  NH1      -38.0270   -8.3730   43.9500 N.pl3  35  ARG35       0.1354
     47  NH2      -37.0810   -9.1900   45.8730 N.pl3  35  ARG35       0.1354
     48  N        -36.3320   -1.1740   46.5510 N.3    48  ARG48      -0.1245
     49  CA       -36.3730   -1.9900   47.7430 C.3    48  ARG48       0.1563
     50  C        -36.3980   -1.1510   49.0490 C.2    48  ARG48       0.2260
     51  O        -36.3520   -1.6960   50.1540 O.2    48  ARG48      -0.2867
     52  CB       -35.1840   -2.9370   47.7240 C.3    48  ARG48       0.0307
     53  CG       -35.1400   -3.8040   46.4740 C.3    48  ARG48       0.0489
     54  CD       -36.2380   -4.8020   46.4430 C.3    48  ARG48       0.2205
     55  NE       -35.9970   -5.8070   47.4540 N.pl3  48  ARG48      -0.0865
     56  CZ       -36.8450   -6.7620   47.8020 C.cat  48  ARG48       0.5346
     57  NH1      -38.0510   -6.8490   47.2490 N.pl3  48  ARG48       0.1354
     58  NH2      -36.4920   -7.6180   48.7410 N.pl3  48  ARG48       0.1354
     59  N        -29.9440   -9.9710   60.7630 N.3   235  PRO235     -0.2116
     60  CA       -31.1100   -9.1350   60.4760 C.3   235  PRO235      0.1372
     61  C        -32.4570   -9.7350   60.9640 C.2   235  PRO235      0.2244
     62  O        -32.6920  -10.9520   60.8320 O.2   235  PRO235     -0.2868
     63  CB       -31.0930   -9.0540   58.9590 C.3   235  PRO235      0.0268
     64  CG       -30.5250  -10.3910   58.5230 C.3   235  PRO235      0.0207
     65  CD       -29.5650  -10.8140   59.6040 C.3   235  PRO235      0.0892
     66  N        -35.5010   -8.8050   59.7510 N.3   237  GLY237     -0.1225
     67  CA       -36.4080   -8.9170   58.6060 C.3   237  GLY237      0.1811
     68  C        -37.2960   -7.7040   58.4160 C.2   237  GLY237      0.2280
     69  O        -38.1630   -7.6970   57.5340 O.2   237  GLY237     -0.2866
     70  N        -35.7430   -4.2890   58.7590 N.3   239  GLY239     -0.1210
     71  CA       -34.8280   -3.1510   58.6860 C.3   239  GLY239      0.1956
     72  C        -33.9510   -2.9960   59.9280 C.2   239  GLY239      0.2613
     73  O        -33.0020   -2.2130   59.9230 O.2   239  GLY239     -0.2717
     74  N        -34.2580   -3.7590   60.9820 N.am  240  THR240     -0.1938
     75  CA       -33.5120   -3.6910   62.2410 C.3   240  THR240      0.2028
     76  C        -32.5960   -4.8980   62.4030 C.2   240  THR240      0.2642
     77  O        -32.6750   -5.8550   61.6320 O.2   240  THR240     -0.2714
     78  CB       -34.4630   -3.6190   63.4430 C.3   240  THR240      0.1808
     79  OG1      -35.1490   -4.8640   63.6100 O.3   240  THR240     -0.2208
     80  CG2      -35.4670   -2.4970   63.2500 C.3   240  THR240      0.0379
     81  N        -31.7400   -4.8600   63.4210 N.am  241  PHE241     -0.1973
     82  CA       -30.7910   -5.9370   63.6400 C.3   241  PHE241      0.1639
     83  C        -30.8200   -6.4840   65.0550 C.2   241  PHE241      0.2290
     84  O        -31.3340   -5.8400   65.9590 O.2   241  PHE241     -0.2864
     85  CB       -29.4000   -5.4510   63.2490 C.3   241  PHE241      0.0560
     86  CG       -29.3030   -5.0630   61.8020 C.ar  241  PHE241     -0.0200
     87  CD1      -29.6080   -3.7700   61.3870 C.ar  241  PHE241     -0.0042
     88  CD2      -28.9520   -5.9990   60.8480 C.ar  241  PHE241     -0.0042
     89  CE1      -29.5380   -3.4330   60.0640 C.ar  241  PHE241     -0.0003
     90  CE2      -28.8760   -5.6600   59.5290 C.ar  241  PHE241     -0.0003
     91  CZ       -29.1710   -4.3810   59.1320 C.ar  241  PHE241     -0.0000
@<TRIPOS>BOND
     1    40    39    2
     2    39    38    1
     3    42    43    1
     4    42    41    1
     5    38    37    1
     6    38    41    1
     7    43    44    1
     8    46    45    1
     9    44    45    2
    10    45    47    1
    11    54    53    1
    12    54    55    1
    13    53    52    1
    14    48    49    1
    15    57    56    1
    16    36    34   am
    17    55    56    2
    18    52    49    1
    19    49    50    1
    20    56    58    1
    21     1     2    1
    22    34    33    1
    23    34    35    2
    24    33    32    1
    25    50    51    2
    26     4     3    2
    27     2     3    1
    28     2     5    1
    29     7     9   ar
    30     7     6   ar
    31    30    31    2
    32    30    29    1
    33     9    11   ar
    34    32    29    1
    35     5     6    1
    36    29    28    1
    37     6     8   ar
    38    11    12    1
    39    11    10   ar
    40    24    23    2
    41     8    10   ar
    42    28    23   am
    43    23    22    1
    44    27    25    1
    45    22    25    1
    46    22    21    1
    47    25    26    1
    48    21    15   am
    49    15    16    2
    50    15    14    1
    51    13    14    1
    52    14    17    1
    53    19    18   ar
    54    69    68    2
    55    17    18    1
    56    18    20   ar
    57    68    67    1
    58    64    63    1
    59    64    65    1
    60    67    66    1
    61    71    70    1
    62    71    72    1
    63    63    60    1
    64    91    90   ar
    65    91    89   ar
    66    90    88   ar
    67    65    59    1
    68    73    72    2
    69    72    74   am
    70    89    87   ar
    71    60    59    1
    72    60    61    1
    73    62    61    2
    74    88    86   ar
    75    74    75    1
    76    87    86   ar
    77    77    76    2
    78    86    85    1
    79    75    76    1
    80    75    78    1
    81    76    81   am
    82    85    82    1
    83    80    78    1
    84    81    82    1
    85    78    79    1
    86    82    83    1
    87    83    84    2
