@<TRIPOS>MOLECULE
tmp/2pyfA00.pdb
 107 104 0 0 0
SMALL
GASTEIGER

@<TRIPOS>ATOM
      1  N         -8.0910  -14.2970   14.6280 N.3    82  PRO82      -0.2116
      2  CA        -7.2970  -13.4310   15.5110 C.3    82  PRO82       0.1372
      3  C         -6.4970  -12.3410   14.7560 C.2    82  PRO82       0.2244
      4  O         -6.1870  -11.3000   15.3350 O.2    82  PRO82      -0.2868
      5  CB        -6.3620  -14.4170   16.2250 C.3    82  PRO82       0.0268
      6  CG        -7.0840  -15.7260   16.1930 C.3    82  PRO82       0.0207
      7  CD        -7.9040  -15.7360   14.9380 C.3    82  PRO82       0.0892
      8  N         -7.8610   -8.6560   14.5330 N.3    85  SER85      -0.1217
      9  CA        -7.8470   -7.8080   15.7300 C.3    85  SER85       0.1889
     10  C         -7.1320   -6.4770   15.4360 C.2    85  SER85       0.2288
     11  O         -5.9520   -6.4530   15.1000 O.2    85  SER85      -0.2866
     12  CB        -7.1690   -8.5320   16.8860 C.3    85  SER85       0.2089
     13  OG        -7.8490   -9.7340   17.1990 O.3    85  SER85      -0.2183
     14  N        -11.5850   -7.4600   18.4880 N.3   111  ILE111     -0.1231
     15  CA       -10.7640   -8.5080   19.0050 C.3   111  ILE111      0.1692
     16  C        -11.3890   -9.8150   18.6880 C.2   111  ILE111      0.2592
     17  O        -12.4630  -10.1190   19.1640 O.2   111  ILE111     -0.2718
     18  CB       -10.5410   -8.4060   20.5440 C.3   111  ILE111      0.0266
     19  CG1       -9.7020   -7.1730   20.8750 C.3   111  ILE111      0.0019
     20  CG2       -9.8090   -9.6080   21.0370 C.3   111  ILE111      0.0020
     21  CD1       -9.3800   -7.0460   22.2880 C.3   111  ILE111      0.0001
     22  N        -10.7190  -10.5930   17.8420 N.am  112  VAL112     -0.1966
     23  CA       -11.1940  -11.9080   17.4660 C.3   112  VAL112      0.1727
     24  C        -10.3680  -12.9200   18.3020 C.2   112  VAL112      0.2616
     25  O         -9.1610  -13.0270   18.1390 O.2   112  VAL112     -0.2715
     26  CB       -10.9920  -12.1880   15.9460 C.3   112  VAL112      0.0290
     27  CG1      -11.5000  -13.5510   15.6040 C.3   112  VAL112      0.0023
     28  CG2      -11.7010  -11.1220   15.0910 C.3   112  VAL112      0.0023
     29  N        -11.0270  -13.6320   19.1970 N.am  113  HIS113     -0.1960
     30  CA       -10.3410  -14.6000   20.0530 C.3   113  HIS113      0.1772
     31  C        -10.0620  -15.9070   19.3440 C.2   113  HIS113      0.2462
     32  O        -10.8410  -16.3360   18.5060 O.2   113  HIS113     -0.2730
     33  CB       -11.1580  -14.8740   21.2900 C.3   113  HIS113      0.0785
     34  CG       -11.4300  -13.6600   22.1210 C.ar  113  HIS113      0.0821
     35  ND1      -10.5210  -13.1590   23.0260 N.ar  113  HIS113     -0.2267
     36  CD2      -12.5180  -12.8590   22.2000 C.ar  113  HIS113      0.1154
     37  CE1      -11.0310  -12.0940   23.6160 C.ar  113  HIS113      0.1986
     38  NE2      -12.2430  -11.8920   23.1350 N.ar  113  HIS113     -0.2212
     39  N         -8.9290  -16.5680   19.6960 N.am  114  PRO114     -0.2727
     40  CA        -8.5760  -17.8210   19.0800 C.3   114  PRO114      0.1402
     41  C         -9.3570  -18.9930   19.6100 C.2   114  PRO114      0.2269
     42  O         -9.8320  -18.9740   20.7640 O.2   114  PRO114     -0.2865
     43  CB        -7.1040  -17.9860   19.4620 C.3   114  PRO114      0.0296
     44  CG        -6.9920  -17.3540   20.7610 C.3   114  PRO114      0.0237
     45  CD        -7.9170  -16.1550   20.6950 C.3   114  PRO114      0.0939
     46  N         -5.2010  -21.0170   28.6550 N.3   142  PHE142     -0.1227
     47  CA        -6.5950  -20.8870   29.0400 C.3   142  PHE142      0.1736
     48  C         -7.5230  -20.6700   27.8380 C.2   142  PHE142      0.2595
     49  O         -7.0950  -20.2070   26.7810 O.2   142  PHE142     -0.2718
     50  CB        -6.7820  -19.7870   30.0980 C.3   142  PHE142      0.0547
     51  CG        -6.2070  -18.4340   29.7070 C.ar  142  PHE142     -0.0202
     52  CD1       -4.8870  -18.0980   30.0400 C.ar  142  PHE142     -0.0042
     53  CD2       -6.9780  -17.5000   29.0420 C.ar  142  PHE142     -0.0042
     54  CE1       -4.3620  -16.8640   29.7040 C.ar  142  PHE142     -0.0003
     55  CE2       -6.4440  -16.2460   28.6950 C.ar  142  PHE142     -0.0003
     56  CZ        -5.1480  -15.9340   29.0270 C.ar  142  PHE142     -0.0000
     57  N         -8.7900  -21.0480   28.0130 N.am  143  ASP143     -0.1960
     58  CA        -9.8070  -20.8950   26.9710 C.3   143  ASP143      0.1840
     59  C        -10.0410  -19.4060   26.7400 C.2   143  ASP143      0.2622
     60  O         -9.8500  -18.5980   27.6430 O.2   143  ASP143     -0.2715
     61  CB       -11.1230  -21.5670   27.4010 C.3   143  ASP143      0.1450
     62  CG       -12.2200  -21.4900   26.3140 C.2   143  ASP143      0.3671
     63  OD1      -13.3920  -21.8050   26.6230 O.co2 143  ASP143     -0.2456
     64  OD2      -11.9040  -21.1110   25.1610 O.co2 143  ASP143     -0.2456
     65  N        -10.4910  -19.0580   25.5400 N.am  144  SER144     -0.1950
     66  CA       -10.7260  -17.6760   25.1850 C.3   144  SER144      0.1924
     67  C        -11.9430  -16.9710   25.8900 C.2   144  SER144      0.2314
     68  O        -12.2650  -15.8470   25.5640 O.2   144  SER144     -0.2863
     69  CB       -10.8290  -17.5380   23.6700 C.3   144  SER144      0.2116
     70  OG        -9.6140  -17.9120   23.0370 O.3   144  SER144     -0.2180
     71  N        -12.0240  -16.8750   29.2920 N.3   146  THR146     -0.1218
     72  CA       -11.4140  -16.4400   30.5330 C.3   146  THR146      0.1862
     73  C        -10.8930  -15.0100   30.4150 C.2   146  THR146      0.2287
     74  O        -10.1720  -14.6760   29.4720 O.2   146  THR146     -0.2866
     75  CB       -10.2200  -17.3660   30.9100 C.3   146  THR146      0.1770
     76  OG1      -10.6510  -18.7280   30.9240 O.3   146  THR146     -0.2211
     77  CG2       -9.6340  -16.9890   32.2840 C.3   146  THR146      0.0375
     78  N         -3.9710   -9.9950   27.7120 N.3   161  LYS161     -0.1231
     79  CA        -3.7320  -11.2870   27.0960 C.3   161  LYS161      0.1693
     80  C         -3.4690  -11.1990   25.5960 C.2   161  LYS161      0.2592
     81  O         -4.0730  -10.3860   24.9030 O.2   161  LYS161     -0.2718
     82  CB        -4.9230  -12.2300   27.3900 C.3   161  LYS161      0.0285
     83  CG        -6.2840  -11.6490   27.0240 C.3   161  LYS161      0.0035
     84  CD        -7.4300  -12.5680   27.4030 C.3   161  LYS161      0.0206
     85  CE        -8.7710  -11.8840   27.1330 C.3   161  LYS161      0.1093
     86  NZ        -9.9520  -12.7340   27.4860 N.3   161  LYS161     -0.1314
     87  N         -2.5190  -12.0220   25.1070 N.am  162  CYS162     -0.1956
     88  CA        -2.1920  -12.0720   23.6610 C.3   162  CYS162      0.1843
     89  C         -2.1660  -13.4980   23.1880 C.2   162  CYS162      0.2625
     90  O         -2.1050  -14.4210   23.9830 O.2   162  CYS162     -0.2714
     91  CB        -0.8480  -11.3160   23.2850 C.3   162  CYS162      0.0997
     92  SG         0.7220  -11.8460   24.1070 S.3   162  CYS162     -0.0797
     93  N         -2.2310  -13.6700   21.8790 N.am  163  VAL163     -0.1977
     94  CA        -2.2250  -14.9740   21.2860 C.3   163  VAL163      0.1596
     95  C         -0.9220  -15.1990   20.5110 C.2   163  VAL163      0.2287
     96  O         -0.4760  -14.3300   19.7940 O.2   163  VAL163     -0.2864
     97  CB        -3.4060  -15.1230   20.2940 C.3   163  VAL163      0.0276
     98  CG1       -3.4430  -16.5550   19.7070 C.3   163  VAL163      0.0022
     99  CG2       -4.6980  -14.7930   20.9740 C.3   163  VAL163      0.0022
    100  N         -3.2320  -18.7660   24.4300 N.3   174  ASN174     -0.1240
    101  CA        -3.4130  -17.4780   25.0880 C.3   174  ASN174      0.1653
    102  C         -2.4910  -17.4310   26.2530 C.2   174  ASN174      0.2266
    103  O         -2.1340  -18.4750   26.8140 O.2   174  ASN174     -0.2867
    104  CB        -4.8670  -17.3270   25.5990 C.3   174  ASN174      0.1155
    105  CG        -5.8640  -17.2540   24.5010 C.2   174  ASN174      0.2627
    106  OD1       -5.6590  -16.5690   23.5150 O.2   174  ASN174     -0.2716
    107  ND2       -7.0010  -17.9290   24.6840 N.am  174  ASN174     -0.0877
@<TRIPOS>BOND
     1     8     9    1
     2     1     7    1
     3     1     2    1
     4     3     4    2
     5     3     2    1
     6     7     6    1
     7    28    26    1
     8    11    10    2
     9    10     9    1
    10     2     5    1
    11    27    26    1
    12     9    12    1
    13    26    23    1
    14     6     5    1
    15    12    13    1
    16    23    22    1
    17    23    24    1
    18    22    16   am
    19    25    24    2
    20    24    29   am
    21    14    15    1
    22    32    31    2
    23    16    15    1
    24    16    17    2
    25    15    18    1
    26    40    43    1
    27    40    41    1
    28    40    39    1
    29    29    30    1
    30    31    39   am
    31    31    30    1
    32    43    44    1
    33    41    42    2
    34    39    45    1
    35    98    97    1
    36    96    95    2
    37    30    33    1
    38    97    99    1
    39    97    94    1
    40    95    94    1
    41    18    19    1
    42    18    20    1
    43    45    44    1
    44    19    21    1
    45    94    93    1
    46    33    34    1
    47    93    89   am
    48    34    36   ar
    49    34    35   ar
    50    36    38   ar
    51    35    37   ar
    52    70    69    1
    53    38    37   ar
    54    89    88    1
    55    89    90    2
    56    91    88    1
    57    91    92    1
    58   106   105    2
    59    88    87    1
    60    69    66    1
    61   100   101    1
    62   105   107   am
    63   105   104    1
    64    81    80    2
    65   101   104    1
    66   101   102    1
    67    87    80   am
    68    64    62   ar
    69    66    65    1
    70    66    67    1
    71    65    59   am
    72    68    67    2
    73    80    79    1
    74   102   103    2
    75    62    63   ar
    76    62    61    1
    77    59    58    1
    78    59    60    2
    79    49    48    2
    80    58    61    1
    81    58    57    1
    82    83    82    1
    83    83    84    1
    84    79    82    1
    85    79    78    1
    86    85    84    1
    87    85    86    1
    88    48    57   am
    89    48    47    1
    90    46    47    1
    91    55    56   ar
    92    55    53   ar
    93    56    54   ar
    94    47    50    1
    95    53    51   ar
    96    71    72    1
    97    74    73    2
    98    54    52   ar
    99    51    52   ar
   100    51    50    1
   101    73    72    1
   102    72    75    1
   103    75    76    1
   104    75    77    1
