@<TRIPOS>MOLECULE
tmp/2pyfA02.pdb
 89 90 0 0 0
SMALL
GASTEIGER

@<TRIPOS>ATOM
      1  N        -15.8050   -7.8780   20.8830 N.3    12  SER12      -0.1202
      2  CA       -15.0320   -9.0650   21.2130 C.3    12  SER12       0.2020
      3  C        -15.8250  -10.2540   20.6540 C.2    12  SER12       0.2619
      4  O        -17.0040  -10.4270   20.9790 O.2    12  SER12      -0.2717
      5  CB       -14.8630   -9.1710   22.7370 C.3    12  SER12       0.2103
      6  OG       -14.1120  -10.2930   23.0990 O.3    12  SER12      -0.2182
      7  N        -15.1890  -11.0620   19.8160 N.am   13  VAL13      -0.1966
      8  CA       -15.8760  -12.1970   19.1930 C.3    13  VAL13       0.1712
      9  C        -14.9700  -13.4290   18.9890 C.2    13  VAL13       0.2458
     10  O        -13.7710  -13.2860   18.8200 O.2    13  VAL13      -0.2730
     11  CB       -16.4210  -11.7540   17.7810 C.3    13  VAL13       0.0289
     12  CG1      -15.2690  -11.2320   16.9030 C.3    13  VAL13       0.0023
     13  CG2      -17.1150  -12.8630   17.1040 C.3    13  VAL13       0.0023
     14  N        -15.5660  -14.6640   19.0340 N.am   14  PRO14      -0.2716
     15  CA       -14.8040  -15.9060   18.8060 C.3    14  PRO14       0.1536
     16  C        -14.5570  -16.1020   17.3140 C.2    14  PRO14       0.2598
     17  O        -15.4530  -15.8530   16.5310 O.2    14  PRO14      -0.2715
     18  CB       -15.7590  -17.0110   19.3180 C.3    14  PRO14       0.0310
     19  CG       -16.9400  -16.3090   19.8820 C.3    14  PRO14       0.0237
     20  CD       -16.9750  -14.9480   19.3270 C.3    14  PRO14       0.0939
     21  N        -13.3510  -16.5390   16.9210 N.am   15  GLU15      -0.1978
     22  CA       -13.0510  -16.7460   15.4760 C.3    15  GLU15       0.1602
     23  C        -13.9950  -17.7260   14.8200 C.2    15  GLU15       0.2287
     24  O        -14.5390  -18.6390   15.4740 O.2    15  GLU15      -0.2864
     25  CB       -11.5910  -17.1800   15.2250 C.3    15  GLU15       0.0415
     26  CG       -11.1640  -18.4670   15.8750 C.3    15  GLU15       0.1163
     27  CD        -9.7390  -18.9000   15.4380 C.2    15  GLU15       0.3649
     28  OE1       -9.3320  -18.5670   14.3080 O.co2  15  GLU15      -0.2457
     29  OE2       -9.0580  -19.5910   16.2120 O.co2  15  GLU15      -0.2457
     30  N        -11.0270  -13.6320   19.1970 N.3   113  HIS113     -0.1227
     31  CA       -10.3410  -14.6000   20.0530 C.3   113  HIS113      0.1737
     32  C        -10.0620  -15.9070   19.3440 C.2   113  HIS113      0.2438
     33  O        -10.8410  -16.3360   18.5060 O.2   113  HIS113     -0.2733
     34  CB       -11.1580  -14.8740   21.2900 C.3   113  HIS113      0.0758
     35  CG       -11.4300  -13.6600   22.1210 C.ar  113  HIS113      0.0818
     36  ND1      -10.5210  -13.1590   23.0260 N.ar  113  HIS113     -0.2268
     37  CD2      -12.5180  -12.8590   22.2000 C.ar  113  HIS113      0.1154
     38  CE1      -11.0310  -12.0940   23.6160 C.ar  113  HIS113      0.1986
     39  NE2      -12.2430  -11.8920   23.1350 N.ar  113  HIS113     -0.2212
     40  N         -8.9290  -16.5680   19.6960 N.am  114  PRO114     -0.2718
     41  CA        -8.5760  -17.8210   19.0800 C.3   114  PRO114      0.1535
     42  C         -9.3570  -18.9930   19.6100 C.2   114  PRO114      0.2599
     43  O         -9.8320  -18.9740   20.7640 O.2   114  PRO114     -0.2715
     44  CB        -7.1040  -17.9860   19.4620 C.3   114  PRO114      0.0310
     45  CG        -6.9920  -17.3540   20.7610 C.3   114  PRO114      0.0237
     46  CD        -7.9170  -16.1550   20.6950 C.3   114  PRO114      0.0939
     47  N         -9.5010  -20.0100   18.7800 N.am  115  TYR115     -0.1960
     48  CA       -10.1850  -21.2070   19.1700 C.3   115  TYR115      0.1771
     49  C         -9.1880  -22.1060   19.8460 C.2   115  TYR115      0.2619
     50  O         -8.2050  -22.5410   19.2290 O.2   115  TYR115     -0.2715
     51  CB       -10.7980  -21.9130   17.9710 C.3   115  TYR115      0.0574
     52  CG       -11.3990  -23.2660   18.3130 C.ar  115  TYR115     -0.0198
     53  CD1      -12.6210  -23.3580   18.9540 C.ar  115  TYR115     -0.0009
     54  CD2      -10.7430  -24.4520   17.9690 C.ar  115  TYR115     -0.0009
     55  CE1      -13.1700  -24.5790   19.2680 C.ar  115  TYR115      0.0417
     56  CE2      -11.2850  -25.6800   18.2750 C.ar  115  TYR115      0.0417
     57  CZ       -12.5020  -25.7410   18.9250 C.ar  115  TYR115      0.1957
     58  OH       -13.0600  -26.9690   19.2380 O.3   115  TYR115     -0.2866
     59  N         -9.4240  -22.3630   21.1250 N.am  116  ILE116     -0.1977
     60  CA        -8.5770  -23.2080   21.9110 C.3   116  ILE116      0.1596
     61  C         -9.2630  -24.5750   21.9630 C.2   116  ILE116      0.2287
     62  O        -10.1770  -24.7870   22.7530 O.2   116  ILE116     -0.2864
     63  CB        -8.3880  -22.6200   23.3490 C.3   116  ILE116      0.0276
     64  CG1       -7.9030  -21.1530   23.2670 C.3   116  ILE116      0.0022
     65  CG2       -7.4330  -23.4650   24.1670 C.3   116  ILE116      0.0022
     66  CD1       -6.6160  -20.9600   22.4740 C.3   116  ILE116      0.0001
     67  N         -8.7900  -21.0480   28.0130 N.3   143  ASP143     -0.1225
     68  CA        -9.8070  -20.8950   26.9710 C.3   143  ASP143      0.1805
     69  C        -10.0410  -19.4060   26.7400 C.2   143  ASP143      0.2598
     70  O         -9.8500  -18.5980   27.6430 O.2   143  ASP143     -0.2718
     71  CB       -11.1230  -21.5670   27.4010 C.3   143  ASP143      0.1424
     72  CG       -12.2200  -21.4900   26.3140 C.2   143  ASP143      0.3668
     73  OD1      -13.3920  -21.8050   26.6230 O.co2 143  ASP143     -0.2456
     74  OD2      -11.9040  -21.1110   25.1610 O.co2 143  ASP143     -0.2456
     75  N        -10.4910  -19.0580   25.5400 N.am  144  SER144     -0.1938
     76  CA       -10.7260  -17.6760   25.1850 C.3   144  SER144      0.2055
     77  C        -11.9430  -16.9710   25.8900 C.2   144  SER144      0.2642
     78  O        -12.2650  -15.8470   25.5640 O.2   144  SER144     -0.2714
     79  CB       -10.8290  -17.5380   23.6700 C.3   144  SER144      0.2130
     80  OG        -9.6140  -17.9120   23.0370 O.3   144  SER144     -0.2179
     81  N        -12.5930  -17.6450   26.8370 N.am  145  GLN145     -0.1976
     82  CA       -13.7320  -17.0380   27.5740 C.3   145  GLN145      0.1601
     83  C        -13.2310  -16.4720   28.9040 C.2   145  GLN145      0.2287
     84  O        -13.9210  -15.7040   29.5570 O.2   145  GLN145     -0.2864
     85  CB       -14.8190  -18.0750   27.8580 C.3   145  GLN145      0.0394
     86  CG       -15.3790  -18.7450   26.6360 C.3   145  GLN145      0.0908
     87  CD       -16.4140  -19.7860   26.9740 C.2   145  GLN145      0.2608
     88  OE1      -16.7510  -20.6350   26.1440 O.2   145  GLN145     -0.2717
     89  NE2      -16.9160  -19.7470   28.2100 N.am  145  GLN145     -0.0878
@<TRIPOS>BOND
     1    28    27   ar
     2    23    24    2
     3    23    22    1
     4    25    22    1
     5    25    26    1
     6    27    26    1
     7    27    29   ar
     8    22    21    1
     9    17    16    2
    10    12    11    1
    11    21    16   am
    12    13    11    1
    13    16    15    1
    14    11     8    1
    15    54    56   ar
    16    54    52   ar
    17    51    52    1
    18    51    48    1
    19    56    57   ar
    20    52    53   ar
    21    33    32    2
    22    47    48    1
    23    47    42   am
    24    15    14    1
    25    15    18    1
    26    10     9    2
    27    57    58    1
    28    57    55   ar
    29    53    55   ar
    30     9    14   am
    31     9     8    1
    32    14    20    1
    33    41    44    1
    34    41    42    1
    35    41    40    1
    36    48    49    1
    37     8     7    1
    38    30    31    1
    39    50    49    2
    40    18    19    1
    41    20    19    1
    42    32    40   am
    43    32    31    1
    44    44    45    1
    45    42    43    2
    46    40    46    1
    47     7     3   am
    48    49    59   am
    49    31    34    1
    50     3     4    2
    51     3     2    1
    52    46    45    1
    53     1     2    1
    54    59    60    1
    55     2     5    1
    56    34    35    1
    57    60    61    1
    58    60    63    1
    59    61    62    2
    60    35    37   ar
    61    35    36   ar
    62    37    39   ar
    63    66    64    1
    64     5     6    1
    65    36    38   ar
    66    80    79    1
    67    39    38   ar
    68    64    63    1
    69    63    65    1
    70    79    76    1
    71    74    72   ar
    72    76    75    1
    73    76    77    1
    74    75    69   am
    75    78    77    2
    76    77    81   am
    77    88    87    2
    78    72    73   ar
    79    72    71    1
    80    86    87    1
    81    86    85    1
    82    69    68    1
    83    69    70    2
    84    81    82    1
    85    68    71    1
    86    68    67    1
    87    87    89   am
    88    82    85    1
    89    82    83    1
    90    83    84    2
