@<TRIPOS>MOLECULE
tmp/2pyhB00.pdb
 210 196 0 0 0
SMALL
GASTEIGER

@<TRIPOS>ATOM
      1  N         98.7410   30.5250  -21.6760 N.3   149  TYR149     -0.1241
      2  CA        98.6290   30.3610  -20.2220 C.3   149  TYR149      0.1605
      3  C         99.1790   31.5700  -19.4680 C.2   149  TYR149      0.2264
      4  O        100.0840   32.2520  -19.9480 O.2   149  TYR149     -0.2867
      5  CB        99.4060   29.1300  -19.7220 C.3   149  TYR149      0.0534
      6  CG        99.0220   27.8050  -20.3370 C.ar  149  TYR149     -0.0201
      7  CD1       99.7250   27.2950  -21.4300 C.ar  149  TYR149     -0.0009
      8  CD2       97.9480   27.0660  -19.8380 C.ar  149  TYR149     -0.0009
      9  CE1       99.3680   26.0900  -22.0140 C.ar  149  TYR149      0.0417
     10  CE2       97.5810   25.8610  -20.4130 C.ar  149  TYR149      0.0417
     11  CZ        98.2940   25.3800  -21.5080 C.ar  149  TYR149      0.1957
     12  OH        97.9130   24.2200  -22.1460 O.3   149  TYR149     -0.2866
     13  N        102.8110   29.2540  -16.0560 N.3   152  ASP152     -0.1239
     14  CA       102.8540   27.8880  -16.5510 C.3   152  ASP152      0.1674
     15  C        104.0360   27.0530  -16.0600 C.2   152  ASP152      0.2266
     16  O        104.7940   26.5150  -16.8710 O.2   152  ASP152     -0.2867
     17  CB       102.8070   27.8990  -18.0880 C.3   152  ASP152      0.1410
     18  CG       102.6670   26.5040  -18.6850 C.2   152  ASP152      0.3668
     19  OD1      102.2790   25.5680  -17.9450 O.co2 152  ASP152     -0.2456
     20  OD2      102.9360   26.3450  -19.9010 O.co2 152  ASP152     -0.2456
     21  N        106.1230   24.2930  -15.6620 N.3   154  HIS154     -0.1241
     22  CA       106.0200   23.0040  -16.3420 C.3   154  HIS154      0.1621
     23  C        106.8740   21.8490  -15.8100 C.2   154  HIS154      0.2264
     24  O        107.6700   22.0090  -14.8850 O.2   154  HIS154     -0.2867
     25  CB       106.2990   23.2130  -17.8290 C.3   154  HIS154      0.0745
     26  CG       105.4740   22.3470  -18.7280 C.ar  154  HIS154      0.0817
     27  ND1      105.8220   21.0490  -19.0420 N.ar  154  HIS154     -0.2268
     28  CD2      104.3130   22.5950  -19.3820 C.ar  154  HIS154      0.1154
     29  CE1      104.9120   20.5370  -19.8520 C.ar  154  HIS154      0.1986
     30  NE2      103.9860   21.4540  -20.0740 N.ar  154  HIS154     -0.2212
     31  N         94.4550   28.9820  -19.3160 N.3   173  ASP173     -0.1239
     32  CA        94.3170   28.9520  -17.8660 C.3   173  ASP173      0.1674
     33  C         95.1630   30.0020  -17.1560 C.2   173  ASP173      0.2266
     34  O         96.2280   30.3790  -17.6440 O.2   173  ASP173     -0.2867
     35  CB        94.6800   27.5590  -17.3610 C.3   173  ASP173      0.1410
     36  CG        93.9850   26.4770  -18.1440 C.2   173  ASP173      0.3668
     37  OD1       92.7420   26.5520  -18.2590 O.co2 173  ASP173     -0.2456
     38  OD2       94.6690   25.5610  -18.6440 O.co2 173  ASP173     -0.2456
     39  N         98.7620   27.1090  -14.0850 N.3   176  VAL176     -0.1245
     40  CA        98.8400   25.6890  -14.4090 C.3   176  VAL176      0.1561
     41  C         99.9490   25.0710  -13.5720 C.2   176  VAL176      0.2260
     42  O        101.0710   25.5730  -13.5510 O.2   176  VAL176     -0.2867
     43  CB        99.1640   25.4380  -15.8990 C.3   176  VAL176      0.0252
     44  CG1       99.1720   23.9480  -16.1830 C.3   176  VAL176      0.0019
     45  CG2       98.1490   26.1250  -16.7720 C.3   176  VAL176      0.0019
     46  N        101.7040   22.0860  -13.8820 N.3   178  ASP178     -0.1239
     47  CA       101.9990   20.9290  -14.7120 C.3   178  ASP178      0.1674
     48  C        103.2210   20.1530  -14.2200 C.2   178  ASP178      0.2266
     49  O        104.3540   20.4850  -14.5490 O.2   178  ASP178     -0.2867
     50  CB       102.1910   21.3570  -16.1720 C.3   178  ASP178      0.1410
     51  CG       102.4220   20.1710  -17.1020 C.2   178  ASP178      0.3668
     52  OD1      103.5030   19.5430  -17.0220 O.co2 178  ASP178     -0.2456
     53  OD2      101.5200   19.8590  -17.9100 O.co2 178  ASP178     -0.2456
     54  N         89.7240   30.0590  -20.0950 N.3   195  ARG195     -0.1231
     55  CA        89.4370   28.6840  -19.6920 C.3   195  ARG195      0.1694
     56  C         89.4290   28.5540  -18.1660 C.2   195  ARG195      0.2592
     57  O         88.6930   29.2730  -17.4980 O.2   195  ARG195     -0.2718
     58  CB        90.4400   27.7120  -20.3160 C.3   195  ARG195      0.0321
     59  CG        89.8640   26.3180  -20.4670 C.3   195  ARG195      0.0489
     60  CD        90.6730   25.4500  -21.4190 C.3   195  ARG195      0.2205
     61  NE        92.0300   25.2410  -20.9330 N.pl3 195  ARG195     -0.0865
     62  CZ        92.9120   24.4120  -21.4800 C.cat 195  ARG195      0.5346
     63  NH1       92.5950   23.6920  -22.5460 N.pl3 195  ARG195      0.1354
     64  NH2       94.1230   24.3130  -20.9600 N.pl3 195  ARG195      0.1354
     65  N         90.2420   27.6640  -17.6080 N.am  196  HIS196     -0.1976
     66  CA        90.2590   27.4650  -16.1530 C.3   196  HIS196      0.1656
     67  C         91.0230   28.5490  -15.3890 C.2   196  HIS196      0.2291
     68  O         91.9200   29.1970  -15.9410 O.2   196  HIS196     -0.2864
     69  CB        90.9130   26.1260  -15.8000 C.3   196  HIS196      0.0771
     70  CG        90.3560   24.9540  -16.5420 C.ar  196  HIS196      0.0820
     71  ND1       89.0430   24.5510  -16.4240 N.ar  196  HIS196     -0.2267
     72  CD2       90.9420   24.0850  -17.3990 C.ar  196  HIS196      0.1154
     73  CE1       88.8450   23.4830  -17.1770 C.ar  196  HIS196      0.1986
     74  NE2       89.9810   23.1800  -17.7780 N.ar  196  HIS196     -0.2212
     75  N         94.6240   25.1120  -13.1640 N.3   199  ASN199     -0.1240
     76  CA        94.5680   23.7980  -13.8070 C.3   199  ASN199      0.1653
     77  C         95.7470   22.8850  -13.4180 C.2   199  ASN199      0.2266
     78  O         96.8210   22.9680  -14.0060 O.2   199  ASN199     -0.2867
     79  CB        94.5010   23.9850  -15.3300 C.3   199  ASN199      0.1155
     80  CG        94.4760   22.6680  -16.0860 C.2   199  ASN199      0.2627
     81  OD1       93.9360   21.6650  -15.6110 O.2   199  ASN199     -0.2716
     82  ND2       95.0480   22.6700  -17.2790 N.am  199  ASN199     -0.0877
     83  N         97.6900   19.6510  -13.5480 N.3   201  VAL201     -0.1231
     84  CA        97.7570   18.5430  -14.4960 C.3   201  VAL201      0.1692
     85  C         99.1210   17.8670  -14.6150 C.2   201  VAL201      0.2592
     86  O        100.1480   18.4540  -14.2870 O.2   201  VAL201     -0.2718
     87  CB        97.3530   19.0420  -15.9080 C.3   201  VAL201      0.0266
     88  CG1       98.2320   20.2200  -16.3020 C.3   201  VAL201      0.0020
     89  CG2       97.5010   17.9270  -16.9370 C.3   201  VAL201      0.0020
     90  N         99.1040   16.6230  -15.0860 N.am  202  THR202     -0.1953
     91  CA       100.3110   15.8550  -15.3700 C.3   202  THR202      0.1897
     92  C        101.1610   15.4050  -14.1790 C.2   202  THR202      0.2313
     93  O        102.2980   15.8350  -14.0200 O.2   202  THR202     -0.2863
     94  CB       101.2240   16.6270  -16.3720 C.3   202  THR202      0.1794
     95  OG1      100.4550   17.0650  -17.4990 O.3   202  THR202     -0.2208
     96  CG2      102.3320   15.7320  -16.8760 C.3   202  THR202      0.0378
     97  N         85.9830   28.2700  -17.8850 N.3   219  SER219     -0.1217
     98  CA        85.6950   26.8680  -17.5930 C.3   219  SER219      0.1889
     99  C         85.4280   26.7420  -16.0970 C.2   219  SER219      0.2288
    100  O         84.5770   27.4410  -15.5600 O.2   219  SER219     -0.2866
    101  CB        86.8860   26.0010  -17.9920 C.3   219  SER219      0.2089
    102  OG        86.4810   24.9110  -18.7940 O.3   219  SER219     -0.2183
    103  N         93.3550   17.3910  -12.7820 N.3   225  GLN225     -0.1245
    104  CA        93.1110   16.3380  -13.7640 C.3   225  GLN225      0.1566
    105  C         94.3520   15.6280  -14.2940 C.2   225  GLN225      0.2260
    106  O         95.4640   16.1460  -14.2350 O.2   225  GLN225     -0.2867
    107  CB        92.3400   16.9120  -14.9430 C.3   225  GLN225      0.0367
    108  CG        93.1530   17.8520  -15.7680 C.3   225  GLN225      0.0905
    109  CD        92.3440   18.4150  -16.8870 C.2   225  GLN225      0.2608
    110  OE1       91.5430   17.7050  -17.4950 O.2   225  GLN225     -0.2717
    111  NE2       92.5380   19.6950  -17.1770 N.am  225  GLN225     -0.0878
    112  N         95.0890   14.7420  -17.5240 N.3   227  GLY227     -0.1210
    113  CA        95.6520   15.3140  -18.7240 C.3   227  GLY227      0.1956
    114  C         95.4390   14.3730  -19.8930 C.2   227  GLY227      0.2612
    115  O         95.1040   13.2050  -19.7120 O.2   227  GLY227     -0.2717
    116  N         95.6390   14.8910  -21.0990 N.am  228  LEU228     -0.1965
    117  CA        95.4510   14.1370  -22.3380 C.3   228  LEU228      0.1728
    118  C         96.2240   12.8200  -22.4030 C.2   228  LEU228      0.2616
    119  O         95.6950   11.8070  -22.8740 O.2   228  LEU228     -0.2715
    120  CB        95.8290   15.0160  -23.5400 C.3   228  LEU228      0.0311
    121  CG        94.9740   16.2800  -23.7150 C.3   228  LEU228      0.0022
    122  CD1       95.5560   17.1970  -24.8000 C.3   228  LEU228      0.0001
    123  CD2       93.5510   15.8560  -24.0510 C.3   228  LEU228      0.0001
    124  N         97.4700   12.8350  -21.9340 N.am  229  GLU229     -0.1977
    125  CA        98.3070   11.6380  -21.9570 C.3   229  GLU229      0.1602
    126  C         98.0170   10.6440  -20.8350 C.2   229  GLU229      0.2287
    127  O         97.5800   11.0260  -19.7440 O.2   229  GLU229     -0.2864
    128  CB        99.7810   12.0300  -21.9090 C.3   229  GLU229      0.0415
    129  CG       100.2750   12.6760  -23.1830 C.3   229  GLU229      0.1163
    130  CD       101.7690   12.9500  -23.1490 C.2   229  GLU229      0.3649
    131  OE1      102.5450   11.9940  -22.9160 O.co2 229  GLU229     -0.2457
    132  OE2      102.1640   14.1200  -23.3560 O.co2 229  GLU229     -0.2457
    133  N         99.2840    9.5640  -18.4710 N.3   231  LEU231     -0.1245
    134  CA       100.3220    9.7950  -17.4890 C.3   231  LEU231      0.1561
    135  C         99.8160    9.3730  -16.1250 C.2   231  LEU231      0.2260
    136  O         98.6500    9.0100  -15.9720 O.2   231  LEU231     -0.2867
    137  CB       100.7050   11.2770  -17.4910 C.3   231  LEU231      0.0270
    138  CG       101.4110   11.7130  -18.7780 C.3   231  LEU231      0.0019
    139  CD1      101.2320   13.1980  -19.0120 C.3   231  LEU231      0.0001
    140  CD2      102.8830   11.3470  -18.6790 C.3   231  LEU231      0.0001
    141  N         81.7660   26.9180  -15.6510 N.3   249  ARG249     -0.1245
    142  CA        81.4530   25.5270  -15.3530 C.3   249  ARG249      0.1563
    143  C         81.4830   25.2490  -13.8620 C.2   249  ARG249      0.2260
    144  O         80.8200   25.9490  -13.1040 O.2   249  ARG249     -0.2867
    145  CB        82.4140   24.5950  -16.0970 C.3   249  ARG249      0.0307
    146  CG        82.3630   24.8050  -17.6070 C.3   249  ARG249      0.0489
    147  CD        82.3510   23.5070  -18.4150 C.3   249  ARG249      0.2205
    148  NE        81.8450   23.7810  -19.7580 N.pl3 249  ARG249     -0.0865
    149  CZ        80.5790   24.1130  -20.0260 C.cat 249  ARG249      0.5346
    150  NH1       79.6840   24.1910  -19.0450 N.pl3 249  ARG249      0.1354
    151  NH2       80.2070   24.4050  -21.2690 N.pl3 249  ARG249      0.1354
    152  N         86.7630   20.9280  -10.1240 N.3   253  LEU253     -0.1245
    153  CA        86.6000   19.7020  -10.9060 C.3   253  LEU253      0.1561
    154  C         87.7740   18.7760  -10.6620 C.2   253  LEU253      0.2260
    155  O         88.9200   19.1470  -10.9260 O.2   253  LEU253     -0.2867
    156  CB        86.5290   20.0030  -12.3960 C.3   253  LEU253      0.0270
    157  CG        86.5950   18.7450  -13.2650 C.3   253  LEU253      0.0019
    158  CD1       85.4320   17.8160  -12.9490 C.3   253  LEU253      0.0001
    159  CD2       86.5800   19.1590  -14.7320 C.3   253  LEU253      0.0001
    160  N         89.1090   15.3920  -11.9170 N.3   255  LYS255     -0.1231
    161  CA        89.0080   14.3430  -12.9250 C.3   255  LYS255      0.1693
    162  C         90.2360   13.4230  -13.0310 C.2   255  LYS255      0.2591
    163  O         91.3550   13.8760  -13.2660 O.2   255  LYS255     -0.2718
    164  CB        88.7110   14.9880  -14.2840 C.3   255  LYS255      0.0285
    165  CG        88.5860   14.0000  -15.4290 C.3   255  LYS255      0.0035
    166  CD        87.9780   14.6270  -16.6720 C.3   255  LYS255      0.0206
    167  CE        88.8570   15.7080  -17.2490 C.3   255  LYS255      0.1093
    168  NZ        88.2780   16.2360  -18.5180 N.3   255  LYS255     -0.1314
    169  N         90.0130   12.1210  -12.8630 N.am  256  MET256     -0.1979
    170  CA        91.0860   11.1320  -12.9580 C.3   256  MET256      0.1605
    171  C         92.2890   11.5150  -12.0940 C.2   256  MET256      0.2287
    172  O         93.3940   11.7400  -12.5850 O.2   256  MET256     -0.2864
    173  CB        91.5200   10.9620  -14.4190 C.3   256  MET256      0.0413
    174  CG        90.4510   10.3900  -15.3350 C.3   256  MET256      0.0598
    175  SD        91.0140   10.1890  -17.0460 S.3   256  MET256     -0.1393
    176  CE        90.8000   11.8660  -17.6580 C.3   256  MET256      0.0692
    177  N         82.5360   18.8680   -8.5790 N.3   276  ARG276     -0.1245
    178  CA        82.2570   17.6910   -9.3860 C.3   276  ARG276      0.1563
    179  C         83.4090   16.6870   -9.3580 C.2   276  ARG276      0.2260
    180  O         84.5070   16.9860   -9.8140 O.2   276  ARG276     -0.2867
    181  CB        82.0010   18.1240  -10.8220 C.3   276  ARG276      0.0307
    182  CG        81.7330   16.9900  -11.7640 C.3   276  ARG276      0.0489
    183  CD        81.7340   17.4770  -13.1830 C.3   276  ARG276      0.2205
    184  NE        81.4150   16.4010  -14.1080 N.pl3 276  ARG276     -0.0865
    185  CZ        81.2980   16.5590  -15.4210 C.cat 276  ARG276      0.5346
    186  NH1       81.4800   17.7550  -15.9630 N.pl3 276  ARG276      0.1354
    187  NH2       80.9820   15.5230  -16.1860 N.pl3 276  ARG276      0.1354
    188  N         84.9220   13.4150  -10.8510 N.3   278  TYR278     -0.1241
    189  CA        84.7860   12.6680  -12.0980 C.3   278  TYR278      0.1605
    190  C         85.8540   11.5680  -12.2520 C.2   278  TYR278      0.2264
    191  O         86.9320   11.7880  -12.8250 O.2   278  TYR278     -0.2867
    192  CB        84.8780   13.6730  -13.2490 C.3   278  TYR278      0.0534
    193  CG        84.2730   13.2630  -14.5720 C.ar  278  TYR278     -0.0201
    194  CD1       84.3940   14.0990  -15.6860 C.ar  278  TYR278     -0.0009
    195  CD2       83.5810   12.0620  -14.7210 C.ar  278  TYR278     -0.0009
    196  CE1       83.8460   13.7580  -16.9170 C.ar  278  TYR278      0.0417
    197  CE2       83.0220   11.7060  -15.9580 C.ar  278  TYR278      0.0417
    198  CZ        83.1650   12.5650  -17.0510 C.ar  278  TYR278      0.1957
    199  OH        82.6490   12.2290  -18.2810 O.3   278  TYR278     -0.2866
    200  N         84.5620    7.9340  -14.5650 N.3   307  PHE307     -0.1241
    201  CA        85.0220    8.3150  -15.9010 C.3   307  PHE307      0.1605
    202  C         85.4140    7.1030  -16.7370 C.2   307  PHE307      0.2264
    203  O         86.3290    6.3670  -16.3750 O.2   307  PHE307     -0.2867
    204  CB        86.2310    9.2460  -15.7730 C.3   307  PHE307      0.0534
    205  CG        86.6740    9.8530  -17.0700 C.ar  307  PHE307     -0.0203
    206  CD1       86.1510   11.0700  -17.4970 C.ar  307  PHE307     -0.0042
    207  CD2       87.6050    9.2060  -17.8680 C.ar  307  PHE307     -0.0042
    208  CE1       86.5480   11.6360  -18.7010 C.ar  307  PHE307     -0.0003
    209  CE2       88.0100    9.7620  -19.0760 C.ar  307  PHE307     -0.0003
    210  CZ        87.4790   10.9810  -19.4940 C.ar  307  PHE307     -0.0000
@<TRIPOS>BOND
     1   122   121    1
     2   123   121    1
     3   121   120    1
     4   120   117    1
     5   132   130   ar
     6   129   130    1
     7   129   128    1
     8   130   131   ar
     9   119   118    2
    10    63    62    1
    11   118   117    1
    12   118   124   am
    13   117   116    1
    14    12    11    1
    15     9    11   ar
    16     9     7   ar
    17   125   124    1
    18   125   128    1
    19   125   126    1
    20     1     2    1
    21    11    10   ar
    22    62    64    1
    23    62    61    2
    24     7     6   ar
    25    60    61    1
    26    60    59    1
    27   151   149    1
    28   116   114   am
    29   126   127    2
    30    59    58    1
    31    10     8   ar
    32     6     8   ar
    33     6     5    1
    34    58    55    1
    35     2     5    1
    36     2     3    1
    37    54    55    1
    38    30    29   ar
    39    30    28   ar
    40   149   148    2
    41   149   150    1
    42     4     3    2
    43    20    18   ar
    44   114   115    2
    45   114   113    1
    46    29    27   ar
    47   148   147    1
    48    55    56    1
    49   210   209   ar
    50   210   208   ar
    51    28    26   ar
    52    31    32    1
    53   209   207   ar
    54    27    26   ar
    55   139   138    1
    56   102   101    1
    57   138   140    1
    58   138   137    1
    59    26    25    1
    60   113   112    1
    61   208   206   ar
    62    18    17    1
    63    18    19   ar
    64    38    36   ar
    65   168   167    1
    66   133   134    1
    67   147   146    1
    68   199   198    1
    69    37    36   ar
    70    56    65   am
    71    56    57    2
    72    36    35    1
    73    17    14    1
    74   101    98    1
    75    53    51   ar
    76    97    98    1
    77   207   205   ar
    78    32    35    1
    79    32    33    1
    80    25    22    1
    81    74    72   ar
    82    74    73   ar
    83   176   175    1
    84    34    33    2
    85    65    66    1
    86   146   145    1
    87    98    99    1
    88    95    94    1
    89   206   205   ar
    90   110   109    2
    91   137   134    1
    92   134   135    1
    93    72    70   ar
    94    82    80   am
    95   167   166    1
    96   111   109   am
    97    73    71   ar
    98    51    52   ar
    99    51    50    1
   100   205   204    1
   101   198   196   ar
   102   198   197   ar
   103   175   174    1
   104    89    87    1
   105   196   194   ar
   106   109   108    1
   107    96    94    1
   108    16    15    2
   109    45    43    1
   110   202   203    2
   111   202   201    1
   112   166   165    1
   113    14    15    1
   114    14    13    1
   115    70    71   ar
   116    70    69    1
   117    94    91    1
   118    22    23    1
   119    22    21    1
   120    88    87    1
   121   187   185    1
   122    44    43    1
   123    50    47    1
   124    66    69    1
   125    66    67    1
   126   135   136    2
   127    99   100    2
   128   145   142    1
   129    80    81    2
   130    80    79    1
   131   186   185    1
   132   197   195   ar
   133    68    67    2
   134    87    84    1
   135   201   204    1
   136   201   200    1
   137    43    40    1
   138    23    24    2
   139   108   107    1
   140   194   193   ar
   141   141   142    1
   142   165   164    1
   143   185   184    2
   144    91    90    1
   145    91    92    1
   146   142   143    1
   147   174   173    1
   148    79    76    1
   149    90    85   am
   150   107   104    1
   151   159   157    1
   152   195   193   ar
   153    47    48    1
   154    47    46    1
   155    85    84    1
   156    85    86    2
   157   193   192    1
   158    49    48    2
   159    84    83    1
   160   173   170    1
   161    40    39    1
   162    40    41    1
   163   105   106    2
   164   105   104    1
   165   164   161    1
   166    92    93    2
   167   184   183    1
   168    78    77    2
   169   143   144    2
   170    76    77    1
   171    76    75    1
   172   104   103    1
   173    41    42    2
   174   163   162    2
   175   157   158    1
   176   157   156    1
   177   192   189    1
   178   183   182    1
   179   162   161    1
   180   162   169   am
   181   170   169    1
   182   170   171    1
   183   161   160    1
   184   191   190    2
   185   172   171    2
   186   156   153    1
   187   190   189    1
   188   189   188    1
   189   182   181    1
   190   155   154    2
   191   153   154    1
   192   153   152    1
   193   181   178    1
   194   180   179    2
   195   178   179    1
   196   178   177    1
