@<TRIPOS>MOLECULE
tmp/2pyiA00.pdb
 238 228 0 0 0
SMALL
GASTEIGER

@<TRIPOS>ATOM
      1  N         32.5310   19.8790   38.9390 N.3    79  GLU79      -0.1245
      2  CA        31.1930   20.3390   38.5800 C.3    79  GLU79       0.1567
      3  C         30.2400   19.1950   38.2660 C.2    79  GLU79       0.2260
      4  O         30.5900   18.2750   37.5290 O.2    79  GLU79      -0.2867
      5  CB        31.2540   21.2620   37.3630 C.3    79  GLU79       0.0388
      6  CG        32.0120   22.5490   37.5790 C.3    79  GLU79       0.1160
      7  CD        31.9840   23.4420   36.3640 C.2    79  GLU79       0.3649
      8  OE1       32.9210   24.2460   36.2090 O.co2  79  GLU79      -0.2457
      9  OE2       31.0310   23.3420   35.5610 O.co2  79  GLU79      -0.2457
     10  N         29.0260   25.2720   35.5960 N.3   124  ASN124     -0.1240
     11  CA        28.9990   26.4920   34.7960 C.3   124  ASN124      0.1653
     12  C         28.2320   26.3460   33.4920 C.2   124  ASN124      0.2266
     13  O         27.4690   27.2360   33.1110 O.2   124  ASN124     -0.2867
     14  CB        30.4250   26.9410   34.4880 C.3   124  ASN124      0.1155
     15  CG        31.0270   27.7440   35.6060 C.2   124  ASN124      0.2627
     16  OD1       30.5510   28.8320   35.9160 O.2   124  ASN124     -0.2716
     17  ND2       32.0800   27.2160   36.2230 N.am  124  ASN124     -0.0877
     18  N         28.5460   23.3930   29.8420 N.3   126  GLY126     -0.1210
     19  CA        28.5980   22.1010   29.1570 C.3   126  GLY126      0.1956
     20  C         29.3720   21.0060   29.8630 C.2   126  GLY126      0.2611
     21  O         28.9470   19.8510   29.8660 O.2   126  GLY126     -0.2717
     22  N         30.5160   21.3670   30.4430 N.am  127  LEU127     -0.1979
     23  CA        31.3550   20.4210   31.1760 C.3   127  LEU127      0.1596
     24  C         30.6270   19.8580   32.3960 C.2   127  LEU127      0.2287
     25  O         30.6270   18.6440   32.6170 O.2   127  LEU127     -0.2864
     26  CB        32.6780   21.0900   31.5860 C.3   127  LEU127      0.0297
     27  CG        33.7280   20.2760   32.3490 C.3   127  LEU127      0.0022
     28  CD1       35.1180   20.6820   31.9060 C.3   127  LEU127      0.0001
     29  CD2       33.5850   20.4670   33.8510 C.3   127  LEU127      0.0001
     30  N         27.6760   17.7560   31.1980 N.3   130  LEU130     -0.1245
     31  CA        28.1570   16.4730   30.6850 C.3   130  LEU130      0.1561
     32  C         28.3360   15.4620   31.8150 C.2   130  LEU130      0.2260
     33  O         27.9320   14.3070   31.6870 O.2   130  LEU130     -0.2867
     34  CB        29.4720   16.6420   29.9210 C.3   130  LEU130      0.0270
     35  CG        29.9650   15.4170   29.1490 C.3   130  LEU130      0.0019
     36  CD1       29.1930   15.2680   27.8410 C.3   130  LEU130      0.0001
     37  CD2       31.4630   15.5370   28.9020 C.3   130  LEU130      0.0001
     38  N         33.4630   28.5820   41.4310 N.3   261  TYR261     -0.1241
     39  CA        34.0820   29.6120   40.6050 C.3   261  TYR261      0.1605
     40  C         33.3050   29.7530   39.2950 C.2   261  TYR261      0.2264
     41  O         33.1600   28.7790   38.5530 O.2   261  TYR261     -0.2867
     42  CB        35.5630   29.3090   40.3580 C.3   261  TYR261      0.0534
     43  CG        36.4360   29.7620   41.5080 C.ar  261  TYR261     -0.0201
     44  CD1       36.6580   28.9380   42.6090 C.ar  261  TYR261     -0.0009
     45  CD2       37.0130   31.0350   41.5080 C.ar  261  TYR261     -0.0009
     46  CE1       37.4550   29.3620   43.6770 C.ar  261  TYR261      0.0417
     47  CE2       37.8090   31.4660   42.5680 C.ar  261  TYR261      0.0417
     48  CZ        38.0180   30.6260   43.6480 C.ar  261  TYR261      0.1957
     49  OH        38.7980   31.0490   44.6980 O.3   261  TYR261     -0.2866
     50  N         33.8910   31.5100   36.5620 N.3   263  ASN263     -0.1225
     51  CA        34.6140   31.6980   35.3100 C.3   263  ASN263      0.1785
     52  C         34.8450   30.3620   34.6230 C.2   263  ASN263      0.2597
     53  O         35.3120   29.4100   35.2460 O.2   263  ASN263     -0.2718
     54  CB        35.9260   32.4810   35.4980 C.3   263  ASN263      0.1169
     55  CG        36.8690   31.8350   36.4930 C.2   263  ASN263      0.2627
     56  OD1       36.4920   31.5340   37.6250 O.2   263  ASN263     -0.2716
     57  ND2       38.1220   31.6440   36.0800 N.am  263  ASN263     -0.0877
     58  N         34.4760   30.2960   33.3470 N.am  264  ASP264     -0.1960
     59  CA        34.5960   29.0720   32.5570 C.3   264  ASP264      0.1840
     60  C         35.5950   29.2760   31.4190 C.2   264  ASP264      0.2622
     61  O         35.6350   28.5100   30.4480 O.2   264  ASP264     -0.2715
     62  CB        33.2260   28.6330   32.0270 C.3   264  ASP264      0.1450
     63  CG        32.5760   29.6740   31.1280 C.2   264  ASP264      0.3671
     64  OD1       32.9270   30.8720   31.2250 O.co2 264  ASP264     -0.2456
     65  OD2       31.6990   29.2900   30.3220 O.co2 264  ASP264     -0.2456
     66  N         36.3740   30.3460   31.5480 N.am  265  ASN265     -0.1958
     67  CA        37.5500   30.5940   30.7250 C.3   265  ASN265      0.1819
     68  C         38.4850   31.5580   31.4580 C.2   265  ASN265      0.2621
     69  O         38.1380   32.0700   32.5300 O.2   265  ASN265     -0.2715
     70  CB        37.1740   31.1220   29.3340 C.3   265  ASN265      0.1195
     71  CG        38.2900   30.9310   28.3180 C.2   265  ASN265      0.2630
     72  OD1       39.2740   30.2310   28.5800 O.2   265  ASN265     -0.2716
     73  ND2       38.1490   31.5590   27.1570 N.am  265  ASN265     -0.0877
     74  N         39.6650   31.7870   30.8800 N.am  266  PHE266     -0.1960
     75  CA        40.7050   32.6380   31.4650 C.3   266  PHE266      0.1771
     76  C         41.0920   32.1570   32.8650 C.2   266  PHE266      0.2620
     77  O         40.6780   32.7380   33.8740 O.2   266  PHE266     -0.2715
     78  CB        40.2890   34.1170   31.4660 C.3   266  PHE266      0.0574
     79  CG        39.9630   34.6580   30.1010 C.ar  266  PHE266     -0.0200
     80  CD1       38.6440   34.7010   29.6510 C.ar  266  PHE266     -0.0042
     81  CD2       40.9730   35.1300   29.2630 C.ar  266  PHE266     -0.0042
     82  CE1       38.3350   35.2010   28.3870 C.ar  266  PHE266     -0.0003
     83  CE2       40.6760   35.6330   27.9940 C.ar  266  PHE266     -0.0003
     84  CZ        39.3540   35.6680   27.5550 C.ar  266  PHE266     -0.0000
     85  N         41.8770   31.0800   32.9010 N.am  267  PHE267     -0.1960
     86  CA        42.3550   30.4750   34.1430 C.3   267  PHE267      0.1771
     87  C         43.0110   31.5060   35.0450 C.2   267  PHE267      0.2619
     88  O         43.9230   32.2250   34.6300 O.2   267  PHE267     -0.2715
     89  CB        43.3200   29.3140   33.8460 C.3   267  PHE267      0.0574
     90  CG        44.0800   28.8160   35.0560 C.ar  267  PHE267     -0.0200
     91  CD1       45.4350   29.1110   35.2120 C.ar  267  PHE267     -0.0042
     92  CD2       43.4420   28.0570   36.0370 C.ar  267  PHE267     -0.0042
     93  CE1       46.1430   28.6600   36.3280 C.ar  267  PHE267     -0.0003
     94  CE2       44.1420   27.5950   37.1550 C.ar  267  PHE267     -0.0003
     95  CZ        45.4970   27.8980   37.3000 C.ar  267  PHE267     -0.0000
     96  N         42.5160   31.5780   36.2750 N.am  268  GLU268     -0.1977
     97  CA        43.0770   32.4470   37.2910 C.3   268  GLU268      0.1602
     98  C         43.5810   31.5500   38.4140 C.2   268  GLU268      0.2287
     99  O         42.8020   30.8040   39.0190 O.2   268  GLU268     -0.2864
    100  CB        42.0060   33.4090   37.8030 C.3   268  GLU268      0.0415
    101  CG        42.4540   34.8520   37.8430 C.3   268  GLU268      0.1163
    102  CD        41.2950   35.8260   37.9720 C.2   268  GLU268      0.3649
    103  OE1       40.3670   35.7840   37.1330 O.co2 268  GLU268     -0.2457
    104  OE2       41.3260   36.6500   38.9060 O.co2 268  GLU268     -0.2457
    105  N         40.7390   28.0330   44.7470 N.3   273  ARG273     -0.1245
    106  CA        40.4050   27.0620   43.7080 C.3   273  ARG273      0.1563
    107  C         41.3110   25.8290   43.7840 C.2   273  ARG273      0.2260
    108  O         40.8390   24.6950   43.6660 O.2   273  ARG273     -0.2867
    109  CB        40.4620   27.7140   42.3160 C.3   273  ARG273      0.0307
    110  CG        40.4010   26.7470   41.1320 C.3   273  ARG273      0.0489
    111  CD        39.0410   26.0600   41.0150 C.3   273  ARG273      0.2205
    112  NE        38.9610   25.2700   39.7910 N.pl3 273  ARG273     -0.0865
    113  CZ        37.8310   24.9130   39.1860 C.cat 273  ARG273      0.5346
    114  NH1       36.6520   25.2650   39.6880 N.pl3 273  ARG273      0.1354
    115  NH2       37.8830   24.2060   38.0650 N.pl3 273  ARG273      0.1354
    116  N         38.4060   16.9810   32.8140 N.3   311  ASP311     -0.1239
    117  CA        39.3510   18.0870   32.6420 C.3   311  ASP311      0.1674
    118  C         40.5500   17.9060   33.5940 C.2   311  ASP311      0.2266
    119  O         40.7050   16.8460   34.2150 O.2   311  ASP311     -0.2867
    120  CB        38.6520   19.4500   32.8300 C.3   311  ASP311      0.1410
    121  CG        39.2010   20.5290   31.9080 C.2   311  ASP311      0.3668
    122  OD1       38.3840   21.2370   31.2790 O.co2 311  ASP311     -0.2456
    123  OD2       40.4410   20.6620   31.8090 O.co2 311  ASP311     -0.2456
    124  N         41.0080   19.6130   36.2280 N.3   313  HIS313     -0.1241
    125  CA        40.6100   20.1160   37.5430 C.3   313  HIS313      0.1621
    126  C         40.9370   19.1510   38.6940 C.2   313  HIS313      0.2264
    127  O         41.4370   19.5870   39.7290 O.2   313  HIS313     -0.2867
    128  CB        39.1380   20.5400   37.5540 C.3   313  HIS313      0.0745
    129  CG        38.7690   21.4820   36.4470 C.ar  313  HIS313      0.0817
    130  ND1       37.4930   21.5580   35.9330 N.ar  313  HIS313     -0.2268
    131  CD2       39.5100   22.3790   35.7510 C.ar  313  HIS313      0.1154
    132  CE1       37.4600   22.4690   34.9770 C.ar  313  HIS313      0.1986
    133  NE2       38.6720   22.9810   34.8450 N.ar  313  HIS313     -0.2212
    134  N         38.7480   19.0770   27.4920 N.3   349  HIS349     -0.1226
    135  CA        37.5110   19.7590   27.0880 C.3   349  HIS349      0.1752
    136  C         37.6620   21.1010   26.3540 C.2   349  HIS349      0.2596
    137  O         36.6740   21.8100   26.1820 O.2   349  HIS349     -0.2718
    138  CB        36.6000   19.9900   28.3000 C.3   349  HIS349      0.0759
    139  CG        36.1260   18.7350   28.9580 C.ar  349  HIS349      0.0818
    140  ND1       34.9480   18.1110   28.6090 N.ar  349  HIS349     -0.2268
    141  CD2       36.6580   18.0020   29.9650 C.ar  349  HIS349      0.1154
    142  CE1       34.7790   17.0430   29.3660 C.ar  349  HIS349      0.1986
    143  NE2       35.8040   16.9520   30.1960 N.ar  349  HIS349     -0.2212
    144  N         38.8670   21.4690   25.9330 N.am  350  THR350     -0.1953
    145  CA        39.0240   22.6870   25.1080 C.3   350  THR350      0.1897
    146  C         40.4400   22.8760   24.6030 C.2   350  THR350      0.2313
    147  O         41.3860   22.3300   25.1730 O.2   350  THR350     -0.2863
    148  CB        38.5250   23.9920   25.8160 C.3   350  THR350      0.1794
    149  OG1       38.6840   25.1240   24.9410 O.3   350  THR350     -0.2208
    150  CG2       39.2700   24.2380   27.1210 C.3   350  THR350      0.0378
    151  N         42.3180   28.6480   28.8910 N.3   355  ALA355     -0.1245
    152  CA        41.5230   27.7550   29.7350 C.3   355  ALA355      0.1562
    153  C         42.3970   26.7320   30.4700 C.2   355  ALA355      0.2260
    154  O         41.9680   26.1370   31.4630 O.2   355  ALA355     -0.2867
    155  CB        40.4630   27.0500   28.9040 C.3   355  ALA355      0.0290
    156  N         45.0720   24.9880   32.8510 N.3   357  GLU357     -0.1245
    157  CA        45.5450   25.1950   34.2150 C.3   357  GLU357      0.1567
    158  C         47.0560   25.0760   34.2870 C.2   357  GLU357      0.2260
    159  O         47.6170   24.0150   34.0040 O.2   357  GLU357     -0.2867
    160  CB        44.9210   24.1760   35.1690 C.3   357  GLU357      0.0388
    161  CG        43.4420   24.3670   35.4070 C.3   357  GLU357      0.1160
    162  CD        42.9440   23.5180   36.5470 C.2   357  GLU357      0.3649
    163  OE1       43.0640   22.2720   36.4750 O.co2 357  GLU357     -0.2457
    164  OE2       42.4350   24.1050   37.5180 O.co2 357  GLU357     -0.2457
    165  N         36.5400   15.3450   23.0090 N.3   427  VAL427     -0.1245
    166  CA        35.0920   15.2080   23.2370 C.3   427  VAL427      0.1561
    167  C         34.2340   15.3070   21.9630 C.2   427  VAL427      0.2260
    168  O         33.0080   15.3170   22.0300 O.2   427  VAL427     -0.2867
    169  CB        34.5970   16.1960   24.3330 C.3   427  VAL427      0.0252
    170  CG1       35.1400   15.7920   25.6990 C.3   427  VAL427      0.0019
    171  CG2       35.0070   17.6310   24.0030 C.3   427  VAL427      0.0019
    172  N         30.8710   13.5660   22.6360 N.3   456  ASN456     -0.1240
    173  CA        29.9170   13.8470   23.7060 C.3   456  ASN456      0.1653
    174  C         28.5020   13.3870   23.3750 C.2   456  ASN456      0.2266
    175  O         28.1700   13.0800   22.2250 O.2   456  ASN456     -0.2867
    176  CB        29.8970   15.3420   24.0430 C.3   456  ASN456      0.1155
    177  CG        31.0450   15.7720   24.9530 C.2   456  ASN456      0.2627
    178  OD1       31.2930   16.9660   25.1090 O.2   456  ASN456     -0.2716
    179  ND2       31.7280   14.8190   25.5630 N.am  456  ASN456     -0.0877
    180  N         34.2510   33.4880   21.6170 N.3   545  TYR545     -0.1227
    181  CA        34.3930   32.3650   20.6810 C.3   545  TYR545      0.1736
    182  C         33.0670   31.7700   20.2130 C.2   545  TYR545      0.2595
    183  O         32.9880   31.2590   19.0960 O.2   545  TYR545     -0.2718
    184  CB        35.3350   31.2840   21.2190 C.3   545  TYR545      0.0548
    185  CG        34.7310   30.1760   22.0650 C.ar  545  TYR545     -0.0200
    186  CD1       34.2290   29.0120   21.4720 C.ar  545  TYR545     -0.0009
    187  CD2       34.7180   30.2620   23.4550 C.ar  545  TYR545     -0.0009
    188  CE1       33.7040   27.9800   22.2380 C.ar  545  TYR545      0.0417
    189  CE2       34.1920   29.2290   24.2370 C.ar  545  TYR545      0.0417
    190  CZ        33.6890   28.0940   23.6200 C.ar  545  TYR545      0.1957
    191  OH        33.1760   27.0680   24.3810 O.3   545  TYR545     -0.2866
    192  N         32.0510   31.8270   21.0730 N.am  546  LYS546     -0.1980
    193  CA        30.7050   31.3250   20.7470 C.3   546  LYS546      0.1596
    194  C         29.9370   32.2980   19.8360 C.2   546  LYS546      0.2287
    195  O         28.9050   31.9440   19.2430 O.2   546  LYS546     -0.2864
    196  CB        29.9190   31.0410   22.0300 C.3   546  LYS546      0.0298
    197  CG        30.4000   29.7950   22.7860 C.3   546  LYS546      0.0038
    198  CD        29.6580   29.6460   24.1120 C.3   546  LYS546      0.0206
    199  CE        30.2160   28.5160   24.9710 C.3   546  LYS546      0.1093
    200  NZ        29.8410   27.1550   24.4710 N.3   546  LYS546     -0.1314
    201  N         37.0740   26.1900   17.6140 N.3   643  THR643     -0.1203
    202  CA        37.0270   26.7430   18.9770 C.3   643  THR643      0.1994
    203  C         36.1300   25.9870   19.9730 C.2   643  THR643      0.2618
    204  O         36.4780   25.8710   21.1490 O.2   643  THR643     -0.2717
    205  CB        36.6450   28.2430   18.9870 C.3   643  THR643      0.1784
    206  OG1       35.3230   28.4110   18.4630 O.3   643  THR643     -0.2211
    207  CG2       37.6420   29.0830   18.1720 C.3   643  THR643      0.0376
    208  N         34.9840   25.4860   19.5090 N.am  644  GLU644     -0.1965
    209  CA        34.0760   24.7110   20.3570 C.3   644  GLU644      0.1733
    210  C         34.4740   23.2350   20.3080 C.2   644  GLU644      0.2616
    211  O         34.3030   22.5820   19.2790 O.2   644  GLU644     -0.2715
    212  CB        32.6220   24.8960   19.8920 C.3   644  GLU644      0.0429
    213  CG        31.5530   24.4010   20.8660 C.3   644  GLU644      0.1163
    214  CD        31.3960   25.2990   22.0770 C.2   644  GLU644      0.3649
    215  OE1       32.0590   25.0260   23.1000 O.co2 644  GLU644     -0.2457
    216  OE2       30.6210   26.2800   22.0050 O.co2 644  GLU644     -0.2457
    217  N         35.0110   22.7160   21.4140 N.am  645  ALA645     -0.1963
    218  CA        35.5430   21.3480   21.4390 C.3   645  ALA645      0.1728
    219  C         34.5000   20.3140   21.0040 C.2   645  ALA645      0.2617
    220  O         34.8080   19.3900   20.2450 O.2   645  ALA645     -0.2715
    221  CB        36.1110   21.0110   22.8150 C.3   645  ALA645      0.0334
    222  N         33.2660   20.4810   21.4740 N.am  646  SER646     -0.1936
    223  CA        32.1630   19.6340   21.0290 C.3   646  SER646      0.2055
    224  C         30.8490   20.3990   20.9700 C.2   646  SER646      0.2644
    225  O         30.1970   20.4600   19.9240 O.2   646  SER646     -0.2714
    226  CB        32.0160   18.4240   21.9570 C.3   646  SER646      0.2130
    227  OG        30.7960   17.7380   21.7180 O.3   646  SER646     -0.2179
    228  N         30.4650   20.9800   22.1020 N.am  647  GLY647     -0.1939
    229  CA        29.1150   21.4720   22.2870 C.3   647  GLY647      0.2014
    230  C         28.2260   20.3150   22.7100 C.2   647  GLY647      0.2639
    231  O         28.4970   19.1490   22.3800 O.2   647  GLY647     -0.2714
    232  N         27.1790   20.6290   23.4670 N.am  648  THR648     -0.1950
    233  CA        26.1580   19.6420   23.8290 C.3   648  THR648      0.1897
    234  C         24.7660   20.2340   23.6790 C.2   648  THR648      0.2313
    235  O         23.7970   19.4990   23.4690 O.2   648  THR648     -0.2863
    236  CB        26.3160   19.1090   25.2660 C.3   648  THR648      0.1794
    237  OG1       26.4720   20.2070   26.1680 O.3   648  THR648     -0.2208
    238  CG2       27.5150   18.1630   25.3760 C.3   648  THR648      0.0378
@<TRIPOS>BOND
     1   201   202    1
     2   207   205    1
     3   206   205    1
     4   202   205    1
     5   202   203    1
     6   183   182    2
     7   195   194    2
     8   211   210    2
     9   208   203   am
    10   208   209    1
    11   194   193    1
    12   212   209    1
    13   212   213    1
    14   225   224    2
    15   203   204    2
    16   182   181    1
    17   182   192   am
    18   220   219    2
    19   210   209    1
    20   210   217   am
    21   181   184    1
    22   181   180    1
    23   193   192    1
    24   193   196    1
    25   213   214    1
    26   224   223    1
    27   224   228   am
    28   219   218    1
    29   219   222   am
    30   223   222    1
    31   223   226    1
    32   184   185    1
    33   217   218    1
    34   218   221    1
    35   186   185   ar
    36   186   188   ar
    37   227   226    1
    38   167   168    2
    39   167   166    1
    40   216   214   ar
    41   196   197    1
    42   185   187   ar
    43   214   215   ar
    44   228   229    1
    45   175   174    2
    46   188   190   ar
    47   229   230    1
    48   231   230    2
    49   172   173    1
    50   230   232   am
    51   197   198    1
    52   165   166    1
    53   166   169    1
    54   174   173    1
    55   187   189   ar
    56   232   233    1
    57   235   234    2
    58   190   189   ar
    59   190   191    1
    60   234   233    1
    61   173   176    1
    62   233   236    1
    63   171   169    1
    64   176   177    1
    65   198   199    1
    66   169   170    1
    67   200   199    1
    68   146   145    1
    69   146   147    2
    70   149   148    1
    71   177   178    2
    72   177   179   am
    73   145   148    1
    74   145   144    1
    75   236   238    1
    76   236   237    1
    77   148   150    1
    78   144   136   am
    79   137   136    2
    80   136   135    1
    81   135   134    1
    82   135   138    1
    83    73    71   am
    84    84    83   ar
    85    84    82   ar
    86    36    35    1
    87    83    81   ar
    88   138   139    1
    89    71    72    2
    90    71    70    1
    91    82    80   ar
    92   140   139   ar
    93   140   142   ar
    94   151   152    1
    95    37    35    1
    96   155   152    1
    97   139   141   ar
    98    35    34    1
    99    19    18    1
   100    19    20    1
   101    81    79   ar
   102    70    67    1
   103   142   143   ar
   104    80    79   ar
   105   152   153    1
   106    20    21    2
   107    20    22   am
   108    34    31    1
   109   141   143   ar
   110    79    78    1
   111    65    63   ar
   112    22    23    1
   113    61    60    2
   114   153   154    2
   115    31    30    1
   116    31    32    1
   117    67    68    1
   118    67    66    1
   119    74    68   am
   120    74    75    1
   121    63    64   ar
   122    63    62    1
   123    23    26    1
   124    23    24    1
   125   122   121   ar
   126    60    66   am
   127    60    59    1
   128    68    69    2
   129    75    78    1
   130    75    76    1
   131    26    27    1
   132    33    32    2
   133   123   121   ar
   134    28    27    1
   135   121   120    1
   136    62    59    1
   137    27    29    1
   138    24    25    2
   139    59    58    1
   140   117   116    1
   141   117   120    1
   142   117   118    1
   143   156   157    1
   144    76    85   am
   145    76    77    2
   146    85    86    1
   147    13    12    2
   148    58    52   am
   149    12    11    1
   150   118   119    2
   151    89    86    1
   152    89    90    1
   153   159   158    2
   154    86    87    1
   155   157   158    1
   156   157   160    1
   157    14    11    1
   158    14    15    1
   159    52    53    2
   160    52    51    1
   161    88    87    2
   162    11    10    1
   163   133   132   ar
   164   133   131   ar
   165   132   130   ar
   166    87    96   am
   167    90    91   ar
   168    90    92   ar
   169   160   161    1
   170    91    93   ar
   171    51    54    1
   172    51    50    1
   173   161   162    1
   174    54    55    1
   175     9     7   ar
   176    15    16    2
   177    15    17   am
   178   131   129   ar
   179   130   129   ar
   180    92    94   ar
   181    57    55   am
   182     8     7   ar
   183   124   125    1
   184    96    97    1
   185    93    95   ar
   186     7     6    1
   187   129   128    1
   188   163   162   ar
   189    55    56    2
   190   162   164   ar
   191   103   102   ar
   192    94    95   ar
   193    97   100    1
   194    97    98    1
   195     5     6    1
   196     5     2    1
   197     4     3    2
   198   125   128    1
   199   125   126    1
   200   100   101    1
   201   101   102    1
   202   102   104   ar
   203   115   113    1
   204     3     2    1
   205    98    99    2
   206    41    40    2
   207     2     1    1
   208   126   127    2
   209   113   114    1
   210   113   112    2
   211    40    39    1
   212   112   111    1
   213    42    39    1
   214    42    43    1
   215    39    38    1
   216   111   110    1
   217   110   109    1
   218    45    43   ar
   219    45    47   ar
   220    43    44   ar
   221   109   106    1
   222    47    48   ar
   223    44    46   ar
   224    48    46   ar
   225    48    49    1
   226   108   107    2
   227   106   107    1
   228   106   105    1
