@<TRIPOS>MOLECULE
tmp/2pyjH00.pdb
 138 132 0 0 0
SMALL
GASTEIGER

@<TRIPOS>ATOM
      1  N         45.7140  -39.1040   31.3810 N.3   247  ASP247     -0.1225
      2  CA        44.9010  -39.5600   30.2470 C.3   247  ASP247      0.1805
      3  C         44.0890  -38.4030   29.6930 C.2   247  ASP247      0.2598
      4  O         43.3610  -37.7340   30.4290 O.2   247  ASP247     -0.2718
      5  CB        43.9660  -40.6990   30.6960 C.3   247  ASP247      0.1424
      6  CG        43.0750  -41.2220   29.5550 C.2   247  ASP247      0.3668
      7  OD1       42.1700  -40.4810   29.0530 O.co2 247  ASP247     -0.2456
      8  OD2       43.2680  -42.3990   29.1680 O.co2 247  ASP247     -0.2456
      9  N         44.2110  -38.1640   28.3920 N.am  248  VAL248     -0.1966
     10  CA        43.4840  -37.0560   27.7570 C.3   248  VAL248      0.1727
     11  C         41.9670  -37.2240   27.8630 C.2   248  VAL248      0.2616
     12  O         41.3870  -38.3670   27.6530 O.2   248  VAL248     -0.2715
     13  CB        43.8760  -36.8300   26.2620 C.3   248  VAL248      0.0290
     14  CG1       43.1880  -35.5690   25.7090 C.3   248  VAL248      0.0023
     15  CG2       45.3580  -36.6890   26.1150 C.3   248  VAL248      0.0023
     16  N         41.3460  -36.0880   28.2290 N.am  249  ASN249     -0.1958
     17  CA        39.9100  -35.8740   28.1570 C.3   249  ASN249      0.1819
     18  C         39.4580  -35.7850   26.7070 C.2   249  ASN249      0.2622
     19  O         39.6390  -34.7570   26.0580 O.2   249  ASN249     -0.2715
     20  CB        39.5380  -34.6010   28.9050 C.3   249  ASN249      0.1195
     21  CG        39.9850  -34.6560   30.3850 C.2   249  ASN249      0.2630
     22  OD1       39.9600  -35.7260   31.0090 O.2   249  ASN249     -0.2716
     23  ND2       40.4290  -33.5350   30.9140 N.am  249  ASN249     -0.0877
     24  N         38.8840  -36.8830   26.2190 N.am  250  SER250     -0.1936
     25  CA        38.3830  -37.0070   24.8270 C.3   250  SER250      0.2055
     26  C         39.4460  -36.6310   23.8210 C.2   250  SER250      0.2643
     27  O         39.3330  -35.5960   23.1810 O.2   250  SER250     -0.2714
     28  CB        37.1290  -36.1310   24.6200 C.3   250  SER250      0.2130
     29  OG        36.0210  -36.6190   25.3490 O.3   250  SER250     -0.2179
     30  N         40.4860  -37.4640   23.6740 N.am  251  LEU251     -0.1963
     31  CA        41.6050  -37.1150   22.7760 C.3   251  LEU251      0.1728
     32  C         41.1960  -36.8940   21.3020 C.2   251  LEU251      0.2616
     33  O         41.5250  -35.8770   20.7240 O.2   251  LEU251     -0.2715
     34  CB        42.7470  -38.1460   22.8260 C.3   251  LEU251      0.0311
     35  CG        43.9600  -37.7360   21.9620 C.3   251  LEU251      0.0022
     36  CD1       44.6420  -36.4210   22.4340 C.3   251  LEU251      0.0001
     37  CD2       44.9450  -38.8050   21.8980 C.3   251  LEU251      0.0001
     38  N         40.5380  -37.8730   20.6940 N.am  252  TYR252     -0.1974
     39  CA        40.2140  -37.7600   19.2560 C.3   252  TYR252      0.1639
     40  C         39.2510  -36.5920   19.0240 C.2   252  TYR252      0.2290
     41  O         39.4790  -35.8010   18.1070 O.2   252  TYR252     -0.2864
     42  CB        39.6770  -39.0710   18.6770 C.3   252  TYR252      0.0560
     43  CG        40.7270  -40.1580   18.4490 C.ar  252  TYR252     -0.0198
     44  CD1       40.5030  -41.1860   17.5220 C.ar  252  TYR252     -0.0009
     45  CD2       41.9390  -40.1790   19.1650 C.ar  252  TYR252     -0.0009
     46  CE1       41.4510  -42.2020   17.3230 C.ar  252  TYR252      0.0417
     47  CE2       42.8890  -41.2020   18.9680 C.ar  252  TYR252      0.0417
     48  CZ        42.6380  -42.2040   18.0580 C.ar  252  TYR252      0.1957
     49  OH        43.5770  -43.2010   17.8580 O.3   252  TYR252     -0.2866
     50  N         29.0420  -35.1710   28.7260 N.3   369  LYS369     -0.1245
     51  CA        30.1200  -36.0100   29.2680 C.3   369  LYS369      0.1561
     52  C         30.6950  -35.4150   30.5710 C.2   369  LYS369      0.2260
     53  O         30.9780  -36.1360   31.5080 O.2   369  LYS369     -0.2867
     54  CB        31.2330  -36.1760   28.2370 C.3   369  LYS369      0.0271
     55  CG        32.3510  -37.0970   28.6530 C.3   369  LYS369      0.0035
     56  CD        33.2600  -37.4720   27.4750 C.3   369  LYS369      0.0206
     57  CE        34.5090  -38.2340   27.9590 C.3   369  LYS369      0.1093
     58  NZ        35.5810  -37.3250   28.5150 N.3   369  LYS369     -0.1314
     59  N         27.2070  -40.5030   30.7480 N.3   377  LYS377     -0.1245
     60  CA        28.5360  -40.0260   30.4120 C.3   377  LYS377      0.1561
     61  C         29.1980  -40.9020   29.3440 C.2   377  LYS377      0.2260
     62  O         29.8130  -40.3920   28.4110 O.2   377  LYS377     -0.2867
     63  CB        29.4200  -40.0010   31.6610 C.3   377  LYS377      0.0271
     64  CG        30.8160  -39.4550   31.4090 C.3   377  LYS377      0.0035
     65  CD        31.5830  -39.3340   32.6960 C.3   377  LYS377      0.0206
     66  CE        32.9590  -38.7180   32.5140 C.3   377  LYS377      0.1093
     67  NZ        33.6180  -38.4360   33.8750 N.3   377  LYS377     -0.1314
     68  N         30.4770  -39.8850   25.5940 N.3   381  LYS381     -0.1231
     69  CA        31.8110  -40.2600   25.1450 C.3   381  LYS381      0.1693
     70  C         31.7880  -41.0060   23.7970 C.2   381  LYS381      0.2591
     71  O         32.5980  -40.7110   22.9150 O.2   381  LYS381     -0.2718
     72  CB        32.4940  -41.1210   26.2030 C.3   381  LYS381      0.0285
     73  CG        33.8690  -41.6200   25.8210 C.3   381  LYS381      0.0035
     74  CD        34.5680  -42.2480   27.0180 C.3   381  LYS381      0.0206
     75  CE        35.7080  -43.1490   26.6040 C.3   381  LYS381      0.1093
     76  NZ        36.5420  -43.5950   27.7920 N.3   381  LYS381     -0.1314
     77  N         30.8710  -41.9740   23.6830 N.am  382  LEU382     -0.1980
     78  CA        30.6980  -42.8090   22.4670 C.3   382  LEU382      0.1596
     79  C         30.1810  -42.0280   21.2630 C.2   382  LEU382      0.2287
     80  O         30.5580  -42.3130   20.1080 O.2   382  LEU382     -0.2864
     81  CB        29.7530  -43.9800   22.7610 C.3   382  LEU382      0.0297
     82  CG        29.4190  -44.9660   21.6040 C.3   382  LEU382      0.0022
     83  CD1       30.6870  -45.6330   21.1010 C.3   382  LEU382      0.0001
     84  CD2       28.4280  -46.0000   22.0730 C.3   382  LEU382      0.0001
     85  N         33.3890  -40.2030   20.0350 N.3   385  ASN385     -0.1225
     86  CA        34.3820  -41.0870   19.4200 C.3   385  ASN385      0.1785
     87  C         33.8560  -41.7820   18.1710 C.2   385  ASN385      0.2597
     88  O         34.5920  -41.9580   17.1940 O.2   385  ASN385     -0.2718
     89  CB        34.8710  -42.1360   20.4210 C.3   385  ASN385      0.1169
     90  CG        35.7600  -41.5430   21.5270 C.2   385  ASN385      0.2627
     91  OD1       36.4140  -40.5020   21.3460 O.2   385  ASN385     -0.2716
     92  ND2       35.7970  -42.2190   22.6650 N.am  385  ASN385     -0.0877
     93  N         32.5940  -42.1940   18.2080 N.am  386  SER386     -0.1952
     94  CA        31.9910  -42.8910   17.0610 C.3   386  SER386      0.1924
     95  C         31.7230  -41.9770   15.8330 C.2   386  SER386      0.2314
     96  O         31.5360  -42.4760   14.7190 O.2   386  SER386     -0.2863
     97  CB        30.7300  -43.6610   17.4740 C.3   386  SER386      0.2116
     98  OG        29.6760  -42.7980   17.7030 O.3   386  SER386     -0.2180
     99  N         34.1330  -39.8170   14.7560 N.3   388  TYR388     -0.1227
    100  CA        35.4310  -40.0960   14.1070 C.3   388  TYR388      0.1736
    101  C         35.3760  -41.4160   13.3230 C.2   388  TYR388      0.2596
    102  O         35.7080  -41.4550   12.1280 O.2   388  TYR388     -0.2718
    103  CB        36.5960  -40.1410   15.1340 C.3   388  TYR388      0.0548
    104  CG        37.6400  -41.2140   14.8180 C.ar  388  TYR388     -0.0200
    105  CD1       38.4340  -41.1340   13.6530 C.ar  388  TYR388     -0.0009
    106  CD2       37.8050  -42.3300   15.6490 C.ar  388  TYR388     -0.0009
    107  CE1       39.3510  -42.1140   13.3330 C.ar  388  TYR388      0.0417
    108  CE2       38.7620  -43.3240   15.3440 C.ar  388  TYR388      0.0417
    109  CZ        39.5180  -43.2100   14.1740 C.ar  388  TYR388      0.1957
    110  OH        40.4460  -44.1680   13.8430 O.3   388  TYR388     -0.2866
    111  N         34.9630  -42.4880   14.0110 N.am  389  GLY389     -0.1957
    112  CA        34.8930  -43.8330   13.4250 C.3   389  GLY389      0.1869
    113  C         34.0260  -43.9130   12.1700 C.2   389  GLY389      0.2309
    114  O         34.3820  -44.5850   11.2170 O.2   389  GLY389     -0.2863
    115  N         47.5360  -44.7210   23.3240 N.3   455  THR455     -0.1203
    116  CA        46.6580  -43.8510   22.4940 C.3   455  THR455      0.1994
    117  C         46.6050  -42.4020   22.9520 C.2   455  THR455      0.2617
    118  O         46.9040  -41.4980   22.1650 O.2   455  THR455     -0.2717
    119  CB        45.2200  -44.4260   22.3640 C.3   455  THR455      0.1784
    120  OG1       45.2920  -45.7450   21.8230 O.3   455  THR455     -0.2211
    121  CG2       44.3530  -43.5470   21.4860 C.3   455  THR455      0.0376
    122  N         46.1900  -42.2090   24.2160 N.am  456  ASP456     -0.1973
    123  CA        45.9830  -40.8910   24.8650 C.3   456  ASP456      0.1709
    124  C         46.4340  -40.9400   26.3400 C.2   456  ASP456      0.2293
    125  O         45.9690  -40.1540   27.1280 O.2   456  ASP456     -0.2864
    126  CB        44.4940  -40.3900   24.7770 C.3   456  ASP456      0.1436
    127  CG        43.5290  -41.1290   25.7160 C.2   456  ASP456      0.3671
    128  OD1       43.8060  -42.3060   25.9840 O.co2 456  ASP456     -0.2456
    129  OD2       42.4800  -40.5250   26.2040 O.co2 456  ASP456     -0.2456
    130  N         44.6540  -39.3420   36.1930 N.3   484  GLU484     -0.1245
    131  CA        43.6480  -40.3890   36.3110 C.3   484  GLU484      0.1567
    132  C         43.8610  -41.2740   37.5290 C.2   484  GLU484      0.2260
    133  O         42.8960  -41.6720   38.1780 O.2   484  GLU484     -0.2867
    134  CB        43.6270  -41.2430   35.0450 C.3   484  GLU484      0.0388
    135  CG        42.3370  -42.0510   34.8550 C.3   484  GLU484      0.1160
    136  CD        42.3130  -42.7950   33.5210 C.2   484  GLU484      0.3649
    137  OE1       43.1200  -43.7410   33.3500 O.co2 484  GLU484     -0.2457
    138  OE2       41.4790  -42.4370   32.6530 O.co2 484  GLU484     -0.2457
@<TRIPOS>BOND
     1   114   113    2
     2   102   101    2
     3   113   112    1
     4   101   111   am
     5   101   100    1
     6   107   105   ar
     7   107   109   ar
     8   112   111    1
     9   105   104   ar
    10   110   109    1
    11   100    99    1
    12   100   103    1
    13   109   108   ar
    14    96    95    2
    15   104   103    1
    16   104   106   ar
    17   108   106   ar
    18    95    94    1
    19    94    97    1
    20    94    93    1
    21    88    87    2
    22    46    44   ar
    23    46    48   ar
    24    97    98    1
    25    44    43   ar
    26    49    48    1
    27    48    47   ar
    28    41    40    2
    29    87    93   am
    30    87    86    1
    31    43    42    1
    32    43    45   ar
    33    42    39    1
    34    47    45   ar
    35    40    39    1
    36    39    38    1
    37    86    85    1
    38    86    89    1
    39    80    79    2
    40    89    90    1
    41    38    32   am
    42    33    32    2
    43    83    82    1
    44    79    78    1
    45    32    31    1
    46    91    90    2
    47   121   119    1
    48    90    92   am
    49    82    84    1
    50    82    81    1
    51   120   119    1
    52    37    35    1
    53    35    36    1
    54    35    34    1
    55   118   117    2
    56   119   116    1
    57    78    81    1
    58    78    77    1
    59   116   117    1
    60   116   115    1
    61    31    34    1
    62    31    30    1
    63    71    70    2
    64   117   122   am
    65    27    26    2
    66    30    26   am
    67    77    70   am
    68    70    69    1
    69    26    25    1
    70   122   123    1
    71    28    25    1
    72    28    29    1
    73   126   123    1
    74   126   127    1
    75    25    24    1
    76   123   124    1
    77    69    68    1
    78    69    72    1
    79    14    13    1
    80   127   128   ar
    81   127   129   ar
    82    73    72    1
    83    73    74    1
    84    19    18    2
    85    15    13    1
    86    24    18   am
    87    13    10    1
    88   124   125    2
    89    75    74    1
    90    75    76    1
    91    18    17    1
    92    56    57    1
    93    56    55    1
    94    12    11    2
    95    10    11    1
    96    10     9    1
    97    11    16   am
    98    57    58    1
    99    17    16    1
   100    17    20    1
   101    54    55    1
   102    54    51    1
   103     9     3   am
   104    62    61    2
   105    50    51    1
   106    20    21    1
   107     7     6   ar
   108     8     6   ar
   109    51    52    1
   110    61    60    1
   111     6     5    1
   112     3     2    1
   113     3     4    2
   114     2     5    1
   115     2     1    1
   116    21    23   am
   117    21    22    2
   118    60    59    1
   119    60    63    1
   120    52    53    2
   121    64    63    1
   122    64    65    1
   123    66    65    1
   124    66    67    1
   125   138   136   ar
   126   137   136   ar
   127   136   135    1
   128   135   134    1
   129   134   131    1
   130   130   131    1
   131   131   132    1
   132   132   133    2
