@<TRIPOS>MOLECULE
tmp/2pylC00.pdb
 136 130 0 0 0
SMALL
GASTEIGER

@<TRIPOS>ATOM
      1  N        -26.0530   -4.2680    2.2970 N.3   245  ASP245     -0.1225
      2  CA       -25.7540   -3.6120    1.0280 C.3   245  ASP245      0.1805
      3  C        -24.2640   -3.6860    0.7530 C.2   245  ASP245      0.2597
      4  O        -23.4770   -3.2050    1.5600 O.2   245  ASP245     -0.2718
      5  CB       -26.1490   -2.1290    1.1150 C.3   245  ASP245      0.1424
      6  CG       -26.8210   -1.6290   -0.1350 C.2   245  ASP245      0.3668
      7  OD1      -27.8740   -2.2010   -0.4590 O.co2 245  ASP245     -0.2456
      8  OD2      -26.3440   -0.6650   -0.7810 O.co2 245  ASP245     -0.2456
      9  N        -23.8750   -4.2530   -0.3870 N.am  246  VAL246     -0.1980
     10  CA       -22.4540   -4.3080   -0.7340 C.3   246  VAL246      0.1595
     11  C        -21.8730   -2.9070   -0.9710 C.2   246  VAL246      0.2287
     12  O        -22.5110   -2.0490   -1.5850 O.2   246  VAL246     -0.2864
     13  CB       -22.1590   -5.2120   -1.9470 C.3   246  VAL246      0.0276
     14  CG1      -20.6520   -5.2800   -2.1970 C.3   246  VAL246      0.0022
     15  CG2      -22.6870   -6.6200   -1.7230 C.3   246  VAL246      0.0022
     16  N        -20.1030   -0.7240   -2.9800 N.3   248  SER248     -0.1202
     17  CA       -19.7400   -0.5930   -4.4030 C.3   248  SER248      0.2020
     18  C        -19.4840   -1.9350   -5.0950 C.2   248  SER248      0.2619
     19  O        -18.3480   -2.2900   -5.3700 O.2   248  SER248     -0.2717
     20  CB       -18.5310    0.3380   -4.5630 C.3   248  SER248      0.2103
     21  OG       -18.8310    1.6300   -4.0720 O.3   248  SER248     -0.2182
     22  N        -20.5550   -2.6570   -5.4010 N.am  249  LEU249     -0.1965
     23  CA       -20.4470   -4.0670   -5.7630 C.3   249  LEU249      0.1728
     24  C        -19.6780   -4.2910   -7.0790 C.2   249  LEU249      0.2616
     25  O        -18.7690   -5.1110   -7.1310 O.2   249  LEU249     -0.2715
     26  CB       -21.8350   -4.7340   -5.8170 C.3   249  LEU249      0.0311
     27  CG       -21.8410   -6.2310   -6.2050 C.3   249  LEU249      0.0022
     28  CD1      -21.1680   -7.1020   -5.1380 C.3   249  LEU249      0.0001
     29  CD2      -23.2190   -6.7340   -6.4930 C.3   249  LEU249      0.0001
     30  N        -20.0240   -3.5610   -8.1360 N.am  250  TYR250     -0.1960
     31  CA       -19.3620   -3.8060   -9.4370 C.3   250  TYR250      0.1756
     32  C        -17.8950   -3.3920   -9.4430 C.2   250  TYR250      0.2461
     33  O        -17.0510   -4.1970   -9.8280 O.2   250  TYR250     -0.2730
     34  CB       -20.1540   -3.2180  -10.6110 C.3   250  TYR250      0.0574
     35  CG       -21.4340   -3.9600  -10.9460 C.ar  250  TYR250     -0.0198
     36  CD1      -22.1270   -3.6650  -12.1040 C.ar  250  TYR250     -0.0009
     37  CD2      -21.9780   -4.9180  -10.0910 C.ar  250  TYR250     -0.0009
     38  CE1      -23.3090   -4.3000  -12.4250 C.ar  250  TYR250      0.0417
     39  CE2      -23.1740   -5.5670  -10.4050 C.ar  250  TYR250      0.0417
     40  CZ       -23.8290   -5.2500  -11.5810 C.ar  250  TYR250      0.1957
     41  OH       -25.0080   -5.8700  -11.9140 O.3   250  TYR250     -0.2866
     42  N        -17.5720   -2.1590   -8.9870 N.am  251  PRO251     -0.2727
     43  CA       -16.1580   -1.7850   -8.7930 C.3   251  PRO251      0.1402
     44  C        -15.3560   -2.7210   -7.8960 C.2   251  PRO251      0.2269
     45  O        -14.1690   -2.9240   -8.1140 O.2   251  PRO251     -0.2865
     46  CB       -16.2490   -0.3860   -8.1770 C.3   251  PRO251      0.0296
     47  CG       -17.5380    0.1410   -8.6520 C.3   251  PRO251      0.0237
     48  CD       -18.4670   -1.0330   -8.6730 C.3   251  PRO251      0.0939
     49  N        -15.0550    9.9150   -3.7370 N.3   367  LYS367     -0.1245
     50  CA       -16.4180    9.6310   -3.2500 C.3   367  LYS367      0.1561
     51  C        -16.5570    9.7520   -1.7180 C.2   367  LYS367      0.2260
     52  O        -17.5250   10.3290   -1.2260 O.2   367  LYS367     -0.2867
     53  CB       -16.8630    8.2280   -3.6890 C.3   367  LYS367      0.0271
     54  CG       -18.2920    7.8890   -3.2870 C.3   367  LYS367      0.0035
     55  CD       -18.6390    6.4320   -3.5160 C.3   367  LYS367      0.0206
     56  CE       -20.0280    6.1180   -2.9550 C.3   367  LYS367      0.1093
     57  NZ       -20.3840    4.6810   -3.0720 N.3   367  LYS367     -0.1314
     58  N        -20.2630   13.7820   -4.6480 N.3   375  LYS375     -0.1231
     59  CA       -20.1690   12.3700   -4.2940 C.3   375  LYS375      0.1693
     60  C        -20.8320   11.4760   -5.3540 C.2   375  LYS375      0.2591
     61  O        -20.2760   10.4450   -5.7400 O.2   375  LYS375     -0.2718
     62  CB       -20.8340   12.1390   -2.9360 C.3   375  LYS375      0.0285
     63  CG       -20.7230   10.7370   -2.3870 C.3   375  LYS375      0.0035
     64  CD       -21.6870   10.5550   -1.2270 C.3   375  LYS375      0.0206
     65  CE       -21.1130    9.6590   -0.1420 C.3   375  LYS375      0.1093
     66  NZ       -20.0100   10.3170    0.6390 N.3   375  LYS375     -0.1314
     67  N        -22.0220   11.8620   -5.8020 N.am  376  GLN376     -0.1979
     68  CA       -22.7400   11.0850   -6.8130 C.3   376  GLN376      0.1601
     69  C        -21.9830   11.0410   -8.1530 C.2   376  GLN376      0.2287
     70  O        -22.0730   10.0550   -8.8990 O.2   376  GLN376     -0.2864
     71  CB       -24.1500   11.6260   -7.0170 C.3   376  GLN376      0.0394
     72  CG       -25.0260   11.6110   -5.7640 C.3   376  GLN376      0.0908
     73  CD       -25.1070   10.2410   -5.1230 C.2   376  GLN376      0.2608
     74  OE1      -24.7080   10.0620   -3.9750 O.2   376  GLN376     -0.2717
     75  NE2      -25.6030    9.2510   -5.8750 N.am  376  GLN376     -0.0878
     76  N        -19.1870    8.4660   -7.6610 N.3   379  LYS379     -0.1231
     77  CA       -19.9170    7.2260   -7.7940 C.3   379  LYS379      0.1693
     78  C        -20.1510    6.8920   -9.3010 C.2   379  LYS379      0.2591
     79  O        -19.9570    5.7490   -9.7280 O.2   379  LYS379     -0.2718
     80  CB       -21.2200    7.3650   -6.9850 C.3   379  LYS379      0.0285
     81  CG       -22.2100    6.2380   -7.0780 C.3   379  LYS379      0.0035
     82  CD       -23.4880    6.5670   -6.2950 C.3   379  LYS379      0.0206
     83  CE       -24.6740    5.6980   -6.7580 C.3   379  LYS379      0.1093
     84  NZ       -25.9830    5.9640   -6.0410 N.3   379  LYS379     -0.1314
     85  N        -20.5320    7.8960  -10.0960 N.am  380  LEU380     -0.1980
     86  CA       -20.8230    7.7100  -11.5270 C.3   380  LEU380      0.1596
     87  C        -19.5680    7.3970  -12.3460 C.2   380  LEU380      0.2287
     88  O        -19.6090    6.6070  -13.2840 O.2   380  LEU380     -0.2864
     89  CB       -21.5750    8.9240  -12.1140 C.3   380  LEU380      0.0297
     90  CG       -22.0430    8.8600  -13.5820 C.3   380  LEU380      0.0022
     91  CD1      -23.0700    7.7310  -13.8640 C.3   380  LEU380      0.0001
     92  CD2      -22.6260   10.2340  -14.0120 C.3   380  LEU380      0.0001
     93  N        -19.0930    3.6530  -11.7310 N.3   383  ASN383     -0.1240
     94  CA       -20.1110    2.8090  -12.3500 C.3   383  ASN383      0.1653
     95  C        -20.1820    2.9030  -13.8890 C.2   383  ASN383      0.2266
     96  O        -20.5310    1.9300  -14.5300 O.2   383  ASN383     -0.2867
     97  CB       -21.4990    3.1010  -11.7730 C.3   383  ASN383      0.1155
     98  CG       -21.6630    2.6200  -10.3420 C.2   383  ASN383      0.2627
     99  OD1      -21.1210    1.5790   -9.9470 O.2   383  ASN383     -0.2716
    100  ND2      -22.4470    3.3650   -9.5590 N.am  383  ASN383     -0.0877
    101  N        -17.5680    0.5750  -15.7860 N.3   386  TYR386     -0.1241
    102  CA       -18.0840   -0.7710  -16.0540 C.3   386  TYR386      0.1605
    103  C        -19.0160   -0.7550  -17.2830 C.2   386  TYR386      0.2264
    104  O        -18.9250   -1.6190  -18.1610 O.2   386  TYR386     -0.2867
    105  CB       -18.8160   -1.3540  -14.8120 C.3   386  TYR386      0.0534
    106  CG       -20.0770   -2.1270  -15.1570 C.ar  386  TYR386     -0.0201
    107  CD1      -20.0130   -3.3850  -15.7620 C.ar  386  TYR386     -0.0009
    108  CD2      -21.3310   -1.5740  -14.9410 C.ar  386  TYR386     -0.0009
    109  CE1      -21.1680   -4.0650  -16.1250 C.ar  386  TYR386      0.0417
    110  CE2      -22.4700   -2.2440  -15.2840 C.ar  386  TYR386      0.0417
    111  CZ       -22.3940   -3.4870  -15.8890 C.ar  386  TYR386      0.1957
    112  OH       -23.5670   -4.1590  -16.2330 O.3   386  TYR386     -0.2866
    113  N        -29.6760   -6.9970   -6.7490 N.3   453  THR453     -0.1203
    114  CA       -28.3330   -6.7000   -7.2860 C.3   453  THR453      0.1994
    115  C        -27.2000   -6.7620   -6.2680 C.2   453  THR453      0.2617
    116  O        -26.3030   -7.6030   -6.3730 O.2   453  THR453     -0.2717
    117  CB       -28.2840   -5.3310   -8.0530 C.3   453  THR453      0.1784
    118  OG1      -29.3320   -5.2780   -9.0280 O.3   453  THR453     -0.2211
    119  CG2      -26.9590   -5.1520   -8.7610 C.3   453  THR453      0.0376
    120  N        -27.2140   -5.8440   -5.3150 N.am  454  ASP454     -0.1973
    121  CA       -26.0810   -5.6580   -4.3910 C.3   454  ASP454      0.1709
    122  C        -26.5140   -5.7530   -2.9280 C.2   454  ASP454      0.2293
    123  O        -25.7890   -5.3330   -2.0240 O.2   454  ASP454     -0.2864
    124  CB       -25.3940   -4.3110   -4.6410 C.3   454  ASP454      0.1436
    125  CG       -26.2340   -3.1300   -4.2090 C.2   454  ASP454      0.3671
    126  OD1      -25.6330   -2.0830   -3.8620 O.co2 454  ASP454     -0.2456
    127  OD2      -27.4830   -3.2270   -4.1960 O.co2 454  ASP454     -0.2456
    128  N        -26.9560   -1.9570    6.3820 N.3   482  GLU482     -0.1245
    129  CA       -27.3110   -0.5840    6.0420 C.3   482  GLU482      0.1567
    130  C        -28.4320   -0.0550    6.9190 C.2   482  GLU482      0.2260
    131  O        -28.3610    1.0770    7.4060 O.2   482  GLU482     -0.2867
    132  CB       -27.7280   -0.4650    4.5820 C.3   482  GLU482      0.0388
    133  CG       -28.0200    0.9870    4.1940 C.3   482  GLU482      0.1160
    134  CD       -28.3120    1.1670    2.7190 C.2   482  GLU482      0.3649
    135  OE1      -29.1640    0.4110    2.1780 O.co2 482  GLU482     -0.2457
    136  OE2      -27.6880    2.0760    2.1150 O.co2 482  GLU482     -0.2457
@<TRIPOS>BOND
     1   104   103    2
     2   103   102    1
     3   112   111    1
     4   109   111   ar
     5   109   107   ar
     6   102   101    1
     7   102   105    1
     8   111   110   ar
     9   107   106   ar
    10   110   108   ar
    11   106   108   ar
    12   106   105    1
    13    96    95    2
    14    92    90    1
    15    95    94    1
    16    91    90    1
    17    90    89    1
    18    88    87    2
    19    38    36   ar
    20    38    40   ar
    21    94    97    1
    22    94    93    1
    23    87    86    1
    24    89    86    1
    25    36    35   ar
    26    41    40    1
    27    97    98    1
    28    40    39   ar
    29    86    85    1
    30    35    34    1
    31    35    37   ar
    32    34    31    1
    33    39    37   ar
    34    98    99    2
    35    98   100   am
    36    85    78   am
    37    33    32    2
    38    79    78    2
    39    32    31    1
    40    32    42   am
    41    31    30    1
    42    78    77    1
    43   118   117    1
    44    42    43    1
    45    42    48    1
    46    70    69    2
    47    43    46    1
    48    43    44    1
    49   119   117    1
    50    48    47    1
    51    47    46    1
    52    69    68    1
    53    30    24   am
    54    45    44    2
    55   117   114    1
    56    77    76    1
    57    77    80    1
    58   114   113    1
    59   114   115    1
    60    25    24    2
    61    24    23    1
    62    81    80    1
    63    81    82    1
    64    71    68    1
    65    71    72    1
    66    68    67    1
    67    83    82    1
    68    83    84    1
    69    29    27    1
    70   116   115    2
    71   115   120   am
    72    27    26    1
    73    27    28    1
    74    75    73   am
    75    26    23    1
    76    67    60   am
    77    72    73    1
    78    23    22    1
    79    61    60    2
    80    22    18   am
    81    19    18    2
    82    60    59    1
    83   120   121    1
    84    73    74    2
    85    18    17    1
    86    58    59    1
    87   124   121    1
    88   124   125    1
    89    20    17    1
    90    20    21    1
    91    17    16    1
    92   121   122    1
    93    59    62    1
    94   125   127   ar
    95   125   126   ar
    96    49    50    1
    97    53    54    1
    98    53    50    1
    99    55    54    1
   100    55    56    1
   101    50    51    1
   102    57    56    1
   103    62    63    1
   104   122   123    2
   105    63    64    1
   106    14    13    1
   107    13    15    1
   108    13    10    1
   109    51    52    2
   110    12    11    2
   111    64    65    1
   112    11    10    1
   113     8     6   ar
   114    10     9    1
   115     7     6   ar
   116     9     3   am
   117    65    66    1
   118     6     5    1
   119     3     2    1
   120     3     4    2
   121     2     5    1
   122     2     1    1
   123   136   134   ar
   124   135   134   ar
   125   134   133    1
   126   133   132    1
   127   132   129    1
   128   129   128    1
   129   129   130    1
   130   130   131    2
