@<TRIPOS>MOLECULE
tmp/2pysB00.pdb
 109 105 0 0 0
SMALL
GASTEIGER

@<TRIPOS>ATOM
      1  N          8.3100   -2.2560   19.1200 N.3    40  GLU40      -0.1231
      2  CA         9.1740   -1.4300   19.9960 C.3    40  GLU40       0.1699
      3  C         10.5560   -2.0740   20.0960 C.2    40  GLU40       0.2592
      4  O         10.7100   -3.2590   19.8450 O.2    40  GLU40      -0.2718
      5  CB         8.5760   -1.2660   21.4170 C.3    40  GLU40       0.0402
      6  CG         8.1500   -2.5800   22.0250 C.3    40  GLU40       0.1161
      7  CD         7.5860   -2.4770   23.4570 C.2    40  GLU40       0.3649
      8  OE1        7.5020   -1.3480   23.9800 O.co2  40  GLU40      -0.2457
      9  OE2        7.1810   -3.5600   24.0040 O.co2  40  GLU40      -0.2457
     10  N         11.5640   -1.2670   20.4020 N.am   41  ASN41      -0.1960
     11  CA        12.8630   -1.7380   20.8110 C.3    41  ASN41       0.1819
     12  C         12.9290   -1.7500   22.3560 C.2    41  ASN41       0.2621
     13  O         12.9650   -0.6990   22.9570 O.2    41  ASN41      -0.2715
     14  CB        13.9160   -0.7780   20.2810 C.3    41  ASN41       0.1195
     15  CG        15.2790   -1.0450   20.7920 C.2    41  ASN41       0.2630
     16  OD1       15.6300   -2.1720   21.1650 O.2    41  ASN41      -0.2716
     17  ND2       16.1030    0.0000   20.7890 N.am   41  ASN41      -0.0877
     18  N         12.9410   -2.9350   22.9460 N.am   42  VAL42      -0.1963
     19  CA        13.1210   -3.1040   24.4150 C.3    42  VAL42       0.1727
     20  C         14.5480   -3.6020   24.6490 C.2    42  VAL42       0.2616
     21  O         14.8490   -4.7670   24.4700 O.2    42  VAL42      -0.2715
     22  CB        12.0950   -4.0710   25.0420 C.3    42  VAL42       0.0290
     23  CG1       12.2260   -4.0580   26.6520 C.3    42  VAL42       0.0023
     24  CG2       10.6720   -3.7010   24.6300 C.3    42  VAL42       0.0023
     25  N         15.4480   -2.6830   24.9820 N.am   43  ASP43      -0.1971
     26  CA        16.7990   -3.0270   25.4070 C.3    43  ASP43       0.1709
     27  C         17.4960   -3.8860   24.3800 C.2    43  ASP43       0.2293
     28  O         18.1740   -4.8380   24.7160 O.2    43  ASP43      -0.2864
     29  CB        16.7560   -3.6950   26.7840 C.3    43  ASP43       0.1436
     30  CG        18.1170   -3.8320   27.4210 C.2    43  ASP43       0.3671
     31  OD1       18.9560   -2.9020   27.3390 O.co2  43  ASP43      -0.2456
     32  OD2       18.3500   -4.9080   28.0080 O.co2  43  ASP43      -0.2456
     33  N          5.7470    0.5740   20.3310 N.3    51  SER51      -0.1202
     34  CA         5.9450    1.2680   19.0530 C.3    51  SER51       0.2020
     35  C          7.2490    2.0440   19.0170 C.2    51  SER51       0.2619
     36  O          7.9080    2.1820   20.0150 O.2    51  SER51      -0.2717
     37  CB         4.7750    2.2090   18.7650 C.3    51  SER51       0.2103
     38  OG         4.5040    3.0580   19.8850 O.3    51  SER51      -0.2182
     39  N          7.6070    2.5270   17.8340 N.am   52  ASN52      -0.1960
     40  CA         8.7260    3.4590   17.6320 C.3    52  ASN52       0.1819
     41  C         10.1020    2.8400   17.7090 C.2    52  ASN52       0.2621
     42  O         11.0870    3.5330   18.0120 O.2    52  ASN52      -0.2715
     43  CB         8.6080    4.6860   18.5480 C.3    52  ASN52       0.1195
     44  CG         9.3030    5.9150   18.0130 C.2    52  ASN52       0.2630
     45  OD1        9.4580    6.1150   16.7840 O.2    52  ASN52      -0.2716
     46  ND2        9.6830    6.8110   18.9440 N.am   52  ASN52      -0.0877
     47  N         10.2220    1.5540   17.3420 N.am   53  PHE53      -0.1974
     48  CA        11.5440    0.9480   17.2970 C.3    53  PHE53       0.1639
     49  C         12.5100    1.6950   16.3690 C.2    53  PHE53       0.2290
     50  O         13.6970    1.6770   16.6340 O.2    53  PHE53      -0.2864
     51  CB        11.5080   -0.4990   16.8750 C.3    53  PHE53       0.0560
     52  CG        11.3070   -0.6990   15.3840 C.ar   53  PHE53      -0.0200
     53  CD1       12.3690   -1.0150   14.5760 C.ar   53  PHE53      -0.0042
     54  CD2       10.0290   -0.6220   14.8310 C.ar   53  PHE53      -0.0042
     55  CE1       12.1790   -1.2300   13.2380 C.ar   53  PHE53      -0.0003
     56  CE2        9.8240   -0.8480   13.4780 C.ar   53  PHE53      -0.0003
     57  CZ        10.9030   -1.1430   12.6890 C.ar   53  PHE53      -0.0000
     58  N         13.2570    4.7500   15.9370 N.3    55  GLU55      -0.1231
     59  CA        14.0420    5.8360   16.5640 C.3    55  GLU55       0.1699
     60  C         15.4100    5.3720   17.0830 C.2    55  GLU55       0.2592
     61  O         16.3510    6.1600   17.1420 O.2    55  GLU55      -0.2718
     62  CB        13.2410    6.4340   17.7210 C.3    55  GLU55       0.0402
     63  CG        13.8730    7.5710   18.4700 C.3    55  GLU55       0.1161
     64  CD        13.9160    8.8660   17.6690 C.2    55  GLU55       0.3649
     65  OE1       13.2000    8.9530   16.6430 O.co2  55  GLU55      -0.2457
     66  OE2       14.6560    9.7960   18.0830 O.co2  55  GLU55      -0.2457
     67  N         15.5060    4.1160   17.5140 N.am   56  THR56      -0.1953
     68  CA        16.6810    3.5790   18.1250 C.3    56  THR56       0.1897
     69  C         17.1990    2.2960   17.4670 C.2    56  THR56       0.2313
     70  O         17.9620    1.5540   18.0790 O.2    56  THR56      -0.2863
     71  CB        16.4350    3.3570   19.6490 C.3    56  THR56       0.1794
     72  OG1       15.2770    2.5340   19.8730 O.3    56  THR56      -0.2208
     73  CG2       16.2340    4.6890   20.3460 C.3    56  THR56       0.0378
     74  N         19.6630   -0.3410   19.6020 N.3    73  LYS73      -0.1231
     75  CA        20.4680    0.0360   20.7530 C.3    73  LYS73       0.1693
     76  C         19.8640   -0.5920   22.0070 C.2    73  LYS73       0.2593
     77  O         18.6640   -0.4650   22.2580 O.2    73  LYS73      -0.2718
     78  CB        20.5350    1.5530   20.9210 C.3    73  LYS73       0.0285
     79  CG        21.5590    2.2040   20.0370 C.3    73  LYS73       0.0035
     80  CD        21.7750    3.7060   20.2310 C.3    73  LYS73       0.0206
     81  CE        20.5710    4.5230   19.9000 C.3    73  LYS73       0.1093
     82  NZ        20.7940    5.9830   20.1880 N.3    73  LYS73      -0.1314
     83  N         20.7050   -1.2570   22.7740 N.am   74  THR74      -0.1939
     84  CA        20.3590   -1.6070   24.1610 C.3    74  THR74       0.2028
     85  C         20.2840   -0.3320   25.0020 C.2    74  THR74       0.2642
     86  O         20.6710    0.7490   24.5590 O.2    74  THR74      -0.2714
     87  CB        21.4230   -2.5090   24.7690 C.3    74  THR74       0.1808
     88  OG1       22.6570   -1.7960   24.8390 O.3    74  THR74      -0.2208
     89  CG2       21.5990   -3.7680   23.9720 C.3    74  THR74       0.0379
     90  N         19.8630   -0.4580   26.2530 N.am   75  ARG75      -0.1977
     91  CA        19.8560    0.6880   27.1480 C.3    75  ARG75       0.1597
     92  C         21.2460    1.2540   27.3280 C.2    75  ARG75       0.2287
     93  O         21.3930    2.4580   27.4520 O.2    75  ARG75      -0.2864
     94  CB        19.2370    0.3250   28.4960 C.3    75  ARG75       0.0334
     95  CG        17.7350    0.1610   28.4340 C.3    75  ARG75       0.0492
     96  CD        17.1020   -0.1650   29.7890 C.3    75  ARG75       0.2205
     97  NE        16.0430   -1.1640   29.6360 N.pl3  75  ARG75      -0.0865
     98  CZ        14.8020   -0.9130   29.2240 C.cat  75  ARG75       0.5346
     99  NH1       14.4130    0.3320   28.9230 N.pl3  75  ARG75       0.1354
    100  NH2       13.9340   -1.9190   29.1150 N.pl3  75  ARG75       0.1354
    101  N         23.3980    1.5920   25.0370 N.3    77  GLN77      -0.1245
    102  CA        23.6750    2.3100   23.7960 C.3    77  GLN77       0.1566
    103  C         24.6580    1.5680   22.9210 C.2    77  GLN77       0.2260
    104  O         25.4430    2.1960   22.1970 O.2    77  GLN77      -0.2867
    105  CB        24.1310    3.7620   24.0330 C.3    77  GLN77       0.0367
    106  CG        23.1570    4.6060   24.8600 C.3    77  GLN77       0.0905
    107  CD        21.7560    4.7440   24.2460 C.2    77  GLN77       0.2608
    108  OE1       20.8040    4.0350   24.6190 O.2    77  GLN77      -0.2717
    109  NE2       21.6250    5.6810   23.3160 N.am   77  GLN77      -0.0878
@<TRIPOS>BOND
     1    57    55   ar
     2    57    56   ar
     3    55    53   ar
     4    56    54   ar
     5    53    52   ar
     6    54    52   ar
     7    52    51    1
     8    58    59    1
     9    49    50    2
    10    49    48    1
    11    59    60    1
    12    59    62    1
    13    65    64   ar
    14    45    44    2
    15    51    48    1
    16    60    61    2
    17    60    67   am
    18    48    47    1
    19    47    41   am
    20    69    70    2
    21    69    68    1
    22    67    68    1
    23    40    41    1
    24    40    39    1
    25    40    43    1
    26    64    66   ar
    27    64    63    1
    28    41    42    2
    29    62    63    1
    30    39    35   am
    31    44    43    1
    32    44    46   am
    33    68    71    1
    34    37    34    1
    35    37    38    1
    36    35    34    1
    37    35    36    2
    38    34    33    1
    39     1     2    1
    40    74    75    1
    41    71    72    1
    42    71    73    1
    43     4     3    2
    44    81    82    1
    45    81    80    1
    46     2     3    1
    47     2     5    1
    48    79    80    1
    49    79    78    1
    50     3    10   am
    51    14    15    1
    52    14    11    1
    53    10    11    1
    54    75    78    1
    55    75    76    1
    56    17    15   am
    57    15    16    2
    58    11    12    1
    59     5     6    1
    60    76    77    2
    61    76    83   am
    62     6     7    1
    63   104   103    2
    64    12    18   am
    65    12    13    2
    66    83    84    1
    67   103   102    1
    68    18    19    1
    69   109   107   am
    70     7     8   ar
    71     7     9   ar
    72   102   105    1
    73   102   101    1
    74    89    87    1
    75   105   106    1
    76    84    87    1
    77    84    85    1
    78   107   108    2
    79   107   106    1
    80    27    28    2
    81    27    26    1
    82    19    20    1
    83    19    22    1
    84    21    20    2
    85    86    85    2
    86    24    22    1
    87    20    25   am
    88    87    88    1
    89    25    26    1
    90    85    90   am
    91    22    23    1
    92    26    29    1
    93    90    91    1
    94    29    30    1
    95    91    92    1
    96    91    94    1
    97    92    93    2
    98    31    30   ar
    99    30    32   ar
   100    95    94    1
   101    95    96    1
   102    99    98    1
   103   100    98    1
   104    98    97    2
   105    97    96    1
