@<TRIPOS>MOLECULE
tmp/2pyuA00.pdb
 142 135 0 0 0
SMALL
GASTEIGER

@<TRIPOS>ATOM
      1  N          3.8760  -26.6420    4.4270 N.3    25  LYS25      -0.1245
      2  CA         4.5410  -26.4580    5.7350 C.3    25  LYS25       0.1561
      3  C          3.9430  -27.3410    6.8190 C.2    25  LYS25       0.2260
      4  O          4.6820  -27.8750    7.6620 O.2    25  LYS25      -0.2867
      5  CB         4.4750  -25.0030    6.1680 C.3    25  LYS25       0.0271
      6  CG         5.3890  -24.1390    5.3800 C.3    25  LYS25       0.0035
      7  CD         5.2020  -22.7130    5.7520 C.3    25  LYS25       0.0206
      8  CE         6.2800  -21.8660    5.1220 C.3    25  LYS25       0.1093
      9  NZ         6.2080  -20.5370    5.7190 N.3    25  LYS25      -0.1314
     10  N          1.5540   -8.6650   11.3810 N.3    53  GLU53      -0.1245
     11  CA         2.9820   -8.7790   11.6680 C.3    53  GLU53       0.1567
     12  C          3.6130   -7.4140   11.8720 C.2    53  GLU53       0.2260
     13  O          4.1010   -6.7880   10.9530 O.2    53  GLU53      -0.2867
     14  CB         3.7040   -9.6050   10.6230 C.3    53  GLU53       0.0388
     15  CG         3.2510  -11.0910   10.6550 C.3    53  GLU53       0.1160
     16  CD         3.7210  -11.7780    9.4120 C.2    53  GLU53       0.3649
     17  OE1        4.7730  -11.3180    8.8560 O.co2  53  GLU53      -0.2457
     18  OE2        3.0140  -12.7260    8.9570 O.co2  53  GLU53      -0.2457
     19  N          3.1300  -14.3070   15.9360 N.3    65  LYS65      -0.1245
     20  CA         2.2060  -15.1940   15.2360 C.3    65  LYS65       0.1561
     21  C          1.8510  -16.4060   16.0850 C.2    65  LYS65       0.2260
     22  O          0.7010  -16.8970   16.0720 O.2    65  LYS65      -0.2867
     23  CB         2.8210  -15.7400   13.9800 C.3    65  LYS65       0.0271
     24  CG         3.2180  -14.7390   12.8840 C.3    65  LYS65       0.0035
     25  CD         3.8160  -15.7720   11.8000 C.3    65  LYS65       0.0206
     26  CE         4.4760  -15.2130   10.6290 C.3    65  LYS65       0.1093
     27  NZ         4.8070  -16.3780    9.6540 N.3    65  LYS65      -0.1314
     28  N          6.8140  -19.6000   12.3100 N.3    80  ASP80      -0.1225
     29  CA         8.0920  -19.3070   11.6920 C.3    80  ASP80       0.1805
     30  C          7.9840  -17.8740   11.2280 C.2    80  ASP80       0.2598
     31  O          6.8680  -17.2950   11.1900 O.2    80  ASP80      -0.2718
     32  CB         8.4200  -20.2330   10.5240 C.3    80  ASP80       0.1424
     33  CG         7.5410  -19.9600    9.3520 C.2    80  ASP80       0.3668
     34  OD1        6.7190  -19.0420    9.4560 O.co2  80  ASP80      -0.2456
     35  OD2        7.6690  -20.6060    8.3520 O.co2  80  ASP80      -0.2456
     36  N          9.1260  -17.2590   10.9790 N.am   81  ALA81      -0.1966
     37  CA         9.1820  -15.9690   10.2560 C.3    81  ALA81       0.1728
     38  C         10.4940  -16.1120    9.4430 C.2    81  ALA81       0.2617
     39  O         11.4890  -16.6310    9.9500 O.2    81  ALA81      -0.2715
     40  CB         9.2280  -14.7570   11.1750 C.3    81  ALA81       0.0334
     41  N         10.4730  -15.7290    8.1790 N.am   82  SER82      -0.1936
     42  CA        11.5900  -15.9330    7.2810 C.3    82  SER82       0.2055
     43  C         11.7340  -14.6880    6.3550 C.2    82  SER82       0.2643
     44  O         10.8020  -13.9020    6.1740 O.2    82  SER82      -0.2714
     45  CB        11.2970  -17.1930    6.3780 C.3    82  SER82       0.2130
     46  OG        11.0710  -18.3100    7.2130 O.3    82  SER82      -0.2179
     47  N         12.8980  -14.5160    5.7540 N.am   83  GLY83      -0.1954
     48  CA        13.0710  -13.4060    4.8050 C.3    83  GLY83       0.1869
     49  C         14.5330  -13.3960    4.4120 C.2    83  GLY83       0.2309
     50  O         15.3380  -14.2930    4.8240 O.2    83  GLY83      -0.2863
     51  N         10.4520   -8.5180    3.4700 N.3    97  SER97      -0.1202
     52  CA        10.7440   -9.4140    2.3410 C.3    97  SER97       0.2020
     53  C          9.4980   -9.6610    1.4430 C.2    97  SER97       0.2618
     54  O          9.5850   -9.5390    0.1980 O.2    97  SER97      -0.2717
     55  CB        11.3570  -10.7640    2.8280 C.3    97  SER97       0.2103
     56  OG        12.6780  -10.5250    3.3520 O.3    97  SER97      -0.2182
     57  N          8.3840  -10.0250    2.0290 N.am   98  ALA98      -0.1979
     58  CA         7.1850  -10.4640    1.2260 C.3    98  ALA98       0.1597
     59  C          6.4800   -9.3000    0.5190 C.2    98  ALA98       0.2287
     60  O          5.8970   -9.4500   -0.6090 O.2    98  ALA98      -0.2864
     61  CB         6.2180  -11.2080    2.1140 C.3    98  ALA98       0.0319
     62  N          6.5650  -11.8850   -6.1020 N.3   107  ASP107     -0.1239
     63  CA         7.9950  -12.3310   -6.0560 C.3   107  ASP107      0.1674
     64  C          8.8890  -11.5770   -7.0390 C.2   107  ASP107      0.2266
     65  O          9.9650  -11.0230   -6.6900 O.2   107  ASP107     -0.2867
     66  CB         8.1000  -13.8340   -6.2580 C.3   107  ASP107      0.1410
     67  CG         7.5170  -14.5990   -5.0800 C.2   107  ASP107      0.3668
     68  OD1        7.2330  -13.9630   -4.0200 O.co2 107  ASP107     -0.2456
     69  OD2        7.3500  -15.8310   -5.1850 O.co2 107  ASP107     -0.2456
     70  N          9.2690   -7.8790   -6.2970 N.3   110  ASN110     -0.1240
     71  CA        10.1850   -7.8290   -5.1220 C.3   110  ASN110      0.1653
     72  C         11.6600   -7.9880   -5.5190 C.2   110  ASN110      0.2266
     73  O         12.5000   -7.1040   -5.2600 O.2   110  ASN110     -0.2867
     74  CB         9.7530   -8.9210   -4.1510 C.3   110  ASN110      0.1155
     75  CG         8.5400   -8.4960   -3.3550 C.2   110  ASN110      0.2627
     76  OD1        8.1670   -7.3260   -3.3990 O.2   110  ASN110     -0.2716
     77  ND2        7.9050   -9.4130   -2.6760 N.am  110  ASN110     -0.0877
     78  N         19.3610  -15.8140    3.8160 N.3   130  PHE130     -0.1241
     79  CA        17.9970  -16.0600    4.1340 C.3   130  PHE130      0.1605
     80  C         18.0010  -16.4810    5.5830 C.2   130  PHE130      0.2264
     81  O         18.9340  -17.1920    6.0250 O.2   130  PHE130     -0.2867
     82  CB        17.4820  -17.2440    3.3010 C.3   130  PHE130      0.0534
     83  CG        17.0570  -16.8560    1.8640 C.ar  130  PHE130     -0.0203
     84  CD1       16.0540  -15.9120    1.6790 C.ar  130  PHE130     -0.0042
     85  CD2       17.6010  -17.5500    0.7320 C.ar  130  PHE130     -0.0042
     86  CE1       15.6260  -15.5950    0.3330 C.ar  130  PHE130     -0.0003
     87  CE2       17.2310  -17.2200   -0.5980 C.ar  130  PHE130     -0.0003
     88  CZ        16.2160  -16.2330   -0.7750 C.ar  130  PHE130     -0.0000
     89  N         11.0270  -20.0340   -5.1050 N.3   166  PHE166     -0.1227
     90  CA        10.0580  -18.9140   -4.9690 C.3   166  PHE166      0.1736
     91  C         10.7820  -17.7000   -4.4480 C.2   166  PHE166      0.2596
     92  O         11.9600  -17.7970   -4.1070 O.2   166  PHE166     -0.2718
     93  CB         8.9090  -19.3300   -4.0590 C.3   166  PHE166      0.0547
     94  CG         9.2580  -19.4100   -2.5720 C.ar  166  PHE166     -0.0202
     95  CD1        9.7820  -20.5770   -2.0290 C.ar  166  PHE166     -0.0042
     96  CD2        9.0140  -18.3160   -1.7210 C.ar  166  PHE166     -0.0042
     97  CE1       10.0810  -20.6730   -0.6510 C.ar  166  PHE166     -0.0003
     98  CE2        9.3200  -18.3720   -0.3590 C.ar  166  PHE166     -0.0003
     99  CZ         9.8360  -19.5540    0.1940 C.ar  166  PHE166     -0.0000
    100  N         10.1290  -16.5500   -4.4530 N.am  167  GLY167     -0.1942
    101  CA        10.6560  -15.3710   -3.7870 C.3   167  GLY167      0.2014
    102  C         11.9430  -14.9310   -4.4410 C.2   167  GLY167      0.2639
    103  O         12.0180  -14.8520   -5.6530 O.2   167  GLY167     -0.2714
    104  N         12.9760  -14.6550   -3.6380 N.am  168  TYR168     -0.1959
    105  CA        14.2410  -14.1200   -4.1590 C.3   168  TYR168      0.1771
    106  C         15.2330  -15.2040   -4.6450 C.2   168  TYR168      0.2619
    107  O         16.3800  -14.8600   -4.9640 O.2   168  TYR168     -0.2715
    108  CB        14.9110  -13.2650   -3.1000 C.3   168  TYR168      0.0574
    109  CG        14.0540  -12.1080   -2.5870 C.ar  168  TYR168     -0.0198
    110  CD1       14.1350  -10.8570   -3.1980 C.ar  168  TYR168     -0.0009
    111  CD2       13.1370  -12.2930   -1.5040 C.ar  168  TYR168     -0.0009
    112  CE1       13.3600   -9.7550   -2.7670 C.ar  168  TYR168      0.0417
    113  CE2       12.3860  -11.2270   -1.0280 C.ar  168  TYR168      0.0417
    114  CZ        12.4960   -9.9370   -1.6700 C.ar  168  TYR168      0.1957
    115  OH        11.7460   -8.8370   -1.2270 O.3   168  TYR168     -0.2866
    116  N         14.7880  -16.4630   -4.7210 N.am  169  ASP169     -0.1971
    117  CA        15.6240  -17.5940   -5.0810 C.3   169  ASP169      0.1709
    118  C         16.4060  -17.3330   -6.3750 C.2   169  ASP169      0.2293
    119  O         17.5980  -17.7210   -6.4770 O.2   169  ASP169     -0.2864
    120  CB        14.7720  -18.8770   -5.2250 C.3   169  ASP169      0.1436
    121  CG        14.4310  -19.4930   -3.8880 C.2   169  ASP169      0.3671
    122  OD1       15.0170  -18.9640   -2.9040 O.co2 169  ASP169     -0.2456
    123  OD2       13.6530  -20.4800   -3.7980 O.co2 169  ASP169     -0.2456
    124  N         17.7490  -27.9110   -2.4000 N.3   189  LYS189     -0.1245
    125  CA        17.5880  -26.6650   -1.6420 C.3   189  LYS189      0.1561
    126  C         17.2570  -27.0480   -0.1970 C.2   189  LYS189      0.2260
    127  O         17.8640  -26.5450    0.7580 O.2   189  LYS189     -0.2867
    128  CB        16.5200  -25.7780   -2.2640 C.3   189  LYS189      0.0271
    129  CG        16.2890  -24.5240   -1.4690 C.3   189  LYS189      0.0035
    130  CD        15.1210  -23.6930   -2.0130 C.3   189  LYS189      0.0206
    131  CE        14.7810  -22.5510   -0.9880 C.3   189  LYS189      0.1093
    132  NZ        13.5270  -21.8000   -1.4440 N.3   189  LYS189     -0.1314
    133  N         18.0110  -22.1710    4.9200 N.3   194  HIS194     -0.1241
    134  CA        17.7080  -21.5580    6.2340 C.3   194  HIS194      0.1621
    135  C         16.5400  -22.3360    6.8930 C.2   194  HIS194      0.2264
    136  O         16.5400  -22.6020    8.0610 O.2   194  HIS194     -0.2867
    137  CB        17.3030  -20.1060    5.9950 C.3   194  HIS194      0.0745
    138  CG        16.2610  -19.9400    4.9250 C.ar  194  HIS194      0.0817
    139  ND1       16.4630  -20.3450    3.6190 N.ar  194  HIS194     -0.2268
    140  CD2       15.0500  -19.3330    4.9470 C.ar  194  HIS194      0.1154
    141  CE1       15.4030  -20.0270    2.8900 C.ar  194  HIS194      0.1986
    142  NE2       14.5440  -19.3790    3.6670 N.ar  194  HIS194     -0.2212
@<TRIPOS>BOND
     1    64    65    2
     2    64    63    1
     3   119   118    2
     4   118   117    1
     5    70    71    1
     6    66    63    1
     7    66    67    1
     8    62    63    1
     9   103   102    2
    10    72    73    2
    11    72    71    1
    12   120   117    1
    13   120   121    1
    14    69    67   ar
    15    71    74    1
    16    89    90    1
    17   117   116    1
    18    67    68   ar
    19    90    91    1
    20    90    93    1
    21   107   106    2
    22   116   106   am
    23   106   105    1
    24   100    91   am
    25   100   101    1
    26    91    92    2
    27   102   101    1
    28   102   104   am
    29   105   104    1
    30   105   108    1
    31    74    75    1
    32    93    94    1
    33   121   123   ar
    34   121   122   ar
    35    76    75    2
    36    75    77   am
    37   110   112   ar
    38   110   109   ar
    39   108   109    1
    40   112   114   ar
    41   109   111   ar
    42    94    95   ar
    43    94    96   ar
    44   124   125    1
    45   128   125    1
    46   128   129    1
    47    95    97   ar
    48   130   129    1
    49   130   131    1
    50    96    98   ar
    51   114   115    1
    52   114   113   ar
    53   125   126    1
    54   111   113   ar
    55   132   131    1
    56    88    87   ar
    57    88    86   ar
    58    97    99   ar
    59    60    59    2
    60    87    85   ar
    61    98    99   ar
    62   126   127    2
    63    54    53    2
    64    86    84   ar
    65    59    58    1
    66    85    83   ar
    67    58    57    1
    68    58    61    1
    69    53    57   am
    70    53    52    1
    71    84    83   ar
    72    83    82    1
    73    52    55    1
    74    52    51    1
    75    55    56    1
    76   141   139   ar
    77   141   142   ar
    78    82    79    1
    79   139   138   ar
    80   142   140   ar
    81    78    79    1
    82    79    80    1
    83    49    48    1
    84    49    50    2
    85     1     2    1
    86    48    47    1
    87   133   134    1
    88   138   140   ar
    89   138   137    1
    90     8     9    1
    91     8     7    1
    92     6     7    1
    93     6     5    1
    94    80    81    2
    95     2     5    1
    96     2     3    1
    97    47    43   am
    98   137   134    1
    99    44    43    2
   100   134   135    1
   101    43    42    1
   102    45    46    1
   103    45    42    1
   104     3     4    2
   105   135   136    2
   106    42    41    1
   107    41    38   am
   108    35    33   ar
   109    17    16   ar
   110    18    16   ar
   111    33    34   ar
   112    33    32    1
   113    16    15    1
   114    38    39    2
   115    38    37    1
   116    27    26    1
   117    37    36    1
   118    37    40    1
   119    32    29    1
   120    14    15    1
   121    14    11    1
   122    26    25    1
   123    13    12    2
   124    36    30   am
   125    31    30    2
   126    30    29    1
   127    10    11    1
   128    11    12    1
   129    29    28    1
   130    25    24    1
   131    24    23    1
   132    23    20    1
   133    20    19    1
   134    20    21    1
   135    22    21    2
