@<TRIPOS>MOLECULE
tmp/2pywA01.pdb
 178 167 0 0 0
SMALL
GASTEIGER

@<TRIPOS>ATOM
      1  N         73.0860    5.3830   13.8540 N.3    40  VAL40      -0.1231
      2  CA        72.5550    4.0860   14.3010 C.3    40  VAL40       0.1692
      3  C         71.0250    3.9910   14.1900 C.2    40  VAL40       0.2593
      4  O         70.4090    2.9800   14.6010 O.2    40  VAL40      -0.2718
      5  CB        72.9470    3.7740   15.7720 C.3    40  VAL40       0.0266
      6  CG1       74.5030    3.7240   15.9660 C.3    40  VAL40       0.0020
      7  CG2       72.2700    4.7720   16.7410 C.3    40  VAL40       0.0020
      8  N         70.4180    5.0480   13.6590 N.am   41  GLY41      -0.1942
      9  CA        68.9710    5.1450   13.5930 C.3    41  GLY41       0.2014
     10  C         68.4270    3.9780   12.8060 C.2    41  GLY41       0.2639
     11  O         68.6800    3.8690   11.5910 O.2    41  GLY41      -0.2714
     12  N         67.6880    3.1080   13.5020 N.am   42  ASP42      -0.1957
     13  CA        66.9930    1.9940   12.8550 C.3    42  ASP42       0.1840
     14  C         65.4740    2.1480   12.9010 C.2    42  ASP42       0.2623
     15  O         64.7400    1.1840   12.6550 O.2    42  ASP42      -0.2715
     16  CB        67.4400    0.6360   13.4260 C.3    42  ASP42       0.1450
     17  CG        67.0360    0.4370   14.8910 C.2    42  ASP42       0.3671
     18  OD1       66.7280    1.4300   15.5820 O.co2  42  ASP42      -0.2456
     19  OD2       67.0530   -0.7200   15.3630 O.co2  42  ASP42      -0.2456
     20  N         65.0110    3.3670   13.1640 N.am   43  GLY43      -0.1940
     21  CA        63.5830    3.6730   13.1860 C.3    43  GLY43       0.2014
     22  C         63.1240    4.1620   11.8160 C.2    43  GLY43       0.2639
     23  O         63.9180    4.2650   10.8650 O.2    43  GLY43      -0.2714
     24  N         61.8450    4.4900   11.7130 N.am   44  ASN44      -0.1958
     25  CA        61.2680    4.8180   10.4140 C.3    44  ASN44       0.1819
     26  C         61.4270    6.2590    9.9130 C.2    44  ASN44       0.2621
     27  O         61.2390    6.5010    8.7100 O.2    44  ASN44      -0.2715
     28  CB        59.7890    4.3660   10.3570 C.3    44  ASN44       0.1195
     29  CG        59.6480    2.8540   10.3700 C.2    44  ASN44       0.2630
     30  OD1       60.4840    2.1550    9.7980 O.2    44  ASN44      -0.2716
     31  ND2       58.5990    2.3340   11.0370 N.am   44  ASN44      -0.0877
     32  N         61.7700    7.2140   10.7870 N.am   45  LEU45      -0.1963
     33  CA        61.6340    8.6390   10.4030 C.3    45  LEU45       0.1728
     34  C         62.8990    9.4850   10.3770 C.2    45  LEU45       0.2616
     35  O         63.0290   10.3840    9.5250 O.2    45  LEU45      -0.2715
     36  CB        60.5940    9.3590   11.2760 C.3    45  LEU45       0.0311
     37  CG        59.1870    9.4260   10.6500 C.3    45  LEU45       0.0022
     38  CD1       58.5010    8.0360   10.7250 C.3    45  LEU45       0.0001
     39  CD2       58.3320   10.4970   11.2870 C.3    45  LEU45       0.0001
     40  N         63.8100    9.2060   11.3180 N.am   46  ASN46      -0.1972
     41  CA        64.8860   10.1480   11.6560 C.3    46  ASN46       0.1688
     42  C         66.2910    9.5560   11.6390 C.2    46  ASN46       0.2292
     43  O         66.4720    8.3600   11.4260 O.2    46  ASN46      -0.2864
     44  CB        64.5860   10.7970   13.0030 C.3    46  ASN46       0.1181
     45  CG        63.2080   11.4220   13.0330 C.2    46  ASN46       0.2629
     46  OD1       62.9370   12.3440   12.2800 O.2    46  ASN46      -0.2716
     47  ND2       62.3220   10.9010   13.8700 N.am   46  ASN46      -0.0877
     48  N         69.7770    9.1640   13.8350 N.3    48  VAL48      -0.1245
     49  CA        70.2060    9.1440   15.2300 C.3    48  VAL48       0.1561
     50  C         71.7020    8.7990   15.2570 C.2    48  VAL48       0.2260
     51  O         72.1040    7.8280   14.6200 O.2    48  VAL48      -0.2867
     52  CB        69.4270    8.0630   16.0080 C.3    48  VAL48       0.0252
     53  CG1       69.9040    7.9620   17.4930 C.3    48  VAL48       0.0019
     54  CG2       67.8890    8.2950   15.9150 C.3    48  VAL48       0.0019
     55  N         75.1500    8.2000   17.8640 N.3    50  ILE50      -0.1245
     56  CA        75.7800    8.0450   19.1780 C.3    50  ILE50       0.1561
     57  C         77.1120    8.7540   19.0570 C.2    50  ILE50       0.2260
     58  O         77.8620    8.5160   18.0920 O.2    50  ILE50      -0.2867
     59  CB        76.0140    6.5780   19.5850 C.3    50  ILE50       0.0252
     60  CG1       74.6850    5.7990   19.5790 C.3    50  ILE50       0.0019
     61  CG2       76.7370    6.5230   20.9840 C.3    50  ILE50       0.0019
     62  CD1       74.8660    4.2680   19.6180 C.3    50  ILE50       0.0001
     63  N         73.4790   11.2940   22.6010 N.3    59  VAL59      -0.1245
     64  CA        72.7390   10.9650   21.3760 C.3    59  VAL59       0.1561
     65  C         72.2890   12.2690   20.7440 C.2    59  VAL59       0.2260
     66  O         71.7850   13.1730   21.4240 O.2    59  VAL59      -0.2867
     67  CB        71.5140   10.0180   21.6700 C.3    59  VAL59       0.0252
     68  CG1       70.4940    9.9690   20.4870 C.3    59  VAL59       0.0019
     69  CG2       72.0030    8.6320   22.0070 C.3    59  VAL59       0.0019
     70  N         69.7730   13.4580   17.6910 N.3    61  LYS61      -0.1245
     71  CA        68.7440   13.0170   16.7400 C.3    61  LYS61       0.1561
     72  C         68.4020   14.1990   15.8490 C.2    61  LYS61       0.2260
     73  O         68.2850   15.3340   16.3300 O.2    61  LYS61      -0.2867
     74  CB        67.4910   12.5290   17.4870 C.3    61  LYS61       0.0271
     75  CG        66.3690   12.0310   16.5800 C.3    61  LYS61       0.0035
     76  CD        65.2360   11.4400   17.4620 C.3    61  LYS61       0.0206
     77  CE        64.0960   10.9030   16.6070 C.3    61  LYS61       0.1093
     78  NZ        63.0230   10.1870   17.4520 N.3    61  LYS61      -0.1314
     79  N         58.7380   16.6240   19.5600 N.3    84  GLU84      -0.1245
     80  CA        59.4780   15.5870   20.2670 C.3    84  GLU84       0.1567
     81  C         60.1900   16.1510   21.4990 C.2    84  GLU84       0.2260
     82  O         60.0260   15.6370   22.6230 O.2    84  GLU84      -0.2867
     83  CB        60.4710   14.8590   19.3500 C.3    84  GLU84       0.0388
     84  CG        61.1830   13.7100   20.0710 C.3    84  GLU84       0.1160
     85  CD        61.9460   12.7790   19.1460 C.2    84  GLU84       0.3649
     86  OE1       62.0780   13.1100   17.9470 O.co2  84  GLU84      -0.2457
     87  OE2       62.4350   11.7250   19.6280 O.co2  84  GLU84      -0.2457
     88  N         64.5890    9.7070   28.6070 N.3   100  PRO100     -0.2116
     89  CA        65.9480   10.2890   28.6280 C.3   100  PRO100      0.1372
     90  C         65.9710   11.8270   28.7790 C.2   100  PRO100      0.2244
     91  O         65.1620   12.5400   28.1690 O.2   100  PRO100     -0.2868
     92  CB        66.5430    9.8870   27.2630 C.3   100  PRO100      0.0268
     93  CG        65.3420    9.6480   26.3760 C.3   100  PRO100      0.0207
     94  CD        64.3040    9.0370   27.3240 C.3   100  PRO100      0.0892
     95  N         70.4460   14.4560   23.5600 N.3   114  MET114     -0.1230
     96  CA        69.8430   13.8030   24.7410 C.3   114  MET114      0.1702
     97  C         70.7610   12.7500   25.3740 C.2   114  MET114      0.2592
     98  O         71.7800   12.3470   24.7980 O.2   114  MET114     -0.2718
     99  CB        68.5140   13.1400   24.3440 C.3   114  MET114      0.0401
    100  CG        68.6720   11.8150   23.5680 C.3   114  MET114      0.0596
    101  SD        67.0510   11.0940   23.0790 S.3   114  MET114     -0.1393
    102  CE        66.6720   12.1650   21.6510 C.3   114  MET114      0.0692
    103  N         70.3630   12.2650   26.5470 N.am  115  ARG115     -0.1966
    104  CA        71.0990   11.2080   27.2140 C.3   115  ARG115      0.1729
    105  C         71.2180    9.9480   26.3340 C.2   115  ARG115      0.2616
    106  O         70.2450    9.5150   25.7160 O.2   115  ARG115     -0.2715
    107  CB        70.4490   10.8870   28.5690 C.3   115  ARG115      0.0348
    108  CG        71.2040    9.8590   29.3860 C.3   115  ARG115      0.0492
    109  CD        70.4860    8.5460   29.2640 C.3   115  ARG115      0.2205
    110  NE        71.0410    7.4490   30.0680 N.pl3 115  ARG115     -0.0865
    111  CZ        70.5390    7.0370   31.2330 C.cat 115  ARG115      0.5346
    112  NH1       69.4870    7.6470   31.7760 N.pl3 115  ARG115      0.1354
    113  NH2       71.0880    6.0070   31.8490 N.pl3 115  ARG115      0.1354
    114  N         72.4230    9.3860   26.2780 N.am  116  TYR116     -0.1960
    115  CA        72.6840    8.0940   25.6340 C.3   116  TYR116      0.1771
    116  C         72.3140    6.9780   26.6150 C.2   116  TYR116      0.2619
    117  O         72.8900    6.8730   27.7070 O.2   116  TYR116     -0.2715
    118  CB        74.1590    7.9840   25.2100 C.3   116  TYR116      0.0574
    119  CG        74.5950    6.6400   24.6160 C.ar  116  TYR116     -0.0198
    120  CD1       73.7640    5.8990   23.7750 C.ar  116  TYR116     -0.0009
    121  CD2       75.8780    6.1300   24.8780 C.ar  116  TYR116     -0.0009
    122  CE1       74.1950    4.6940   23.2440 C.ar  116  TYR116      0.0417
    123  CE2       76.3060    4.9350   24.3400 C.ar  116  TYR116      0.0417
    124  CZ        75.4670    4.2350   23.5070 C.ar  116  TYR116      0.1957
    125  OH        75.8830    3.0510   22.9590 O.3   116  TYR116     -0.2866
    126  N         71.3200    6.1760   26.2330 N.am  117  LEU117     -0.1977
    127  CA        70.9120    5.0400   27.0300 C.3   117  LEU117      0.1596
    128  C         71.9110    3.9420   26.6850 C.2   117  LEU117      0.2287
    129  O         71.8060    3.2480   25.6600 O.2   117  LEU117     -0.2864
    130  CB        69.4620    4.6520   26.7110 C.3   117  LEU117      0.0297
    131  CG        68.4570    5.7940   26.9560 C.3   117  LEU117      0.0022
    132  CD1       67.0640    5.4620   26.3690 C.3   117  LEU117      0.0001
    133  CD2       68.3690    6.0920   28.4670 C.3   117  LEU117      0.0001
    134  N         66.4260   -1.9870   22.4150 N.3   123  ILE123     -0.1245
    135  CA        65.0060   -1.7730   22.1660 C.3   123  ILE123      0.1561
    136  C         64.2250   -2.9750   22.7030 C.2   123  ILE123      0.2260
    137  O         64.6000   -4.1220   22.4610 O.2   123  ILE123     -0.2867
    138  CB        64.7570   -1.5050   20.6570 C.3   123  ILE123      0.0252
    139  CG1       65.3110   -0.1060   20.2700 C.3   123  ILE123      0.0019
    140  CG2       63.3230   -1.6500   20.3190 C.3   123  ILE123      0.0019
    141  CD1       64.5530    1.0910   20.7860 C.3   123  ILE123      0.0001
    142  N         59.1150   -0.7770   20.1020 N.3   240  GLY240     -0.1225
    143  CA        60.3030   -0.1390   19.5350 C.3   240  GLY240      0.1811
    144  C         60.5200    1.2690   20.0630 C.2   240  GLY240      0.2280
    145  O         61.4550    1.9730   19.6510 O.2   240  GLY240     -0.2866
    146  N         63.3560    1.4500   25.5970 N.3   243  MET243     -0.1245
    147  CA        64.6830    0.8330   25.7250 C.3   243  MET243      0.1570
    148  C         64.8900    0.2770   27.1430 C.2   243  MET243      0.2261
    149  O         64.5160    0.9240   28.1300 O.2   243  MET243     -0.2867
    150  CB        65.7820    1.8170   25.3330 C.3   243  MET243      0.0387
    151  CG        65.7190    2.1960   23.8320 C.3   243  MET243      0.0595
    152  SD        67.2180    3.0650   23.3370 S.3   243  MET243     -0.1393
    153  CE        68.3240    1.6690   23.0390 C.3   243  MET243      0.0692
    154  N         61.3550    6.3380   24.6250 N.3   252  ILE252     -0.1231
    155  CA        61.9460    7.2490   23.6560 C.3   252  ILE252      0.1692
    156  C         60.9760    7.6170   22.5100 C.2   252  ILE252      0.2592
    157  O         59.9190    6.9850   22.3460 O.2   252  ILE252     -0.2718
    158  CB        63.2470    6.6450   23.0170 C.3   252  ILE252      0.0266
    159  CG1       62.9430    5.3660   22.2050 C.3   252  ILE252      0.0019
    160  CG2       64.3500    6.3990   24.0860 C.3   252  ILE252      0.0020
    161  CD1       64.0920    4.9540   21.2630 C.3   252  ILE252      0.0001
    162  N         61.3620    8.6280   21.7190 N.am  253  ASP253     -0.1974
    163  CA        60.7110    8.9130   20.4190 C.3   253  ASP253      0.1709
    164  C         59.2160    9.3620   20.4910 C.2   253  ASP253      0.2293
    165  O         58.3820    8.8250   19.7670 O.2   253  ASP253     -0.2864
    166  CB        60.8900    7.6770   19.4990 C.3   253  ASP253      0.1436
    167  CG        60.5880    7.9650   18.0270 C.2   253  ASP253      0.3671
    168  OD1       60.4850    9.1560   17.6520 O.co2 253  ASP253     -0.2456
    169  OD2       60.4490    6.9680   17.2530 O.co2 253  ASP253     -0.2456
    170  N         57.8550   11.8860   19.1380 N.3   255  GLU255     -0.1245
    171  CA        57.6760   12.9140   18.1120 C.3   255  GLU255      0.1567
    172  C         56.2150   13.0380   17.6050 C.2   255  GLU255      0.2260
    173  O         55.8420   14.0910   17.1270 O.2   255  GLU255     -0.2867
    174  CB        58.6180   12.6790   16.9340 C.3   255  GLU255      0.0388
    175  CG        58.2780   11.4410   16.1570 C.3   255  GLU255      0.1160
    176  CD        59.2580   11.1580   15.0320 C.2   255  GLU255      0.3649
    177  OE1       59.7770   12.1180   14.4120 O.co2 255  GLU255     -0.2457
    178  OE2       59.5280    9.9740   14.7840 O.co2 255  GLU255     -0.2457
@<TRIPOS>BOND
     1    27    26    2
     2    35    34    2
     3    30    29    2
     4    26    25    1
     5    26    32   am
     6    28    29    1
     7    28    25    1
     8    29    31   am
     9    34    33    1
    10    34    40   am
    11    33    32    1
    12    33    36    1
    13    25    24    1
    14    37    38    1
    15    37    36    1
    16    37    39    1
    17    23    22    2
    18    40    41    1
    19    43    42    2
    20    11    10    2
    21    42    41    1
    22    41    44    1
    23    24    22   am
    24    22    21    1
    25    46    45    2
    26    15    14    2
    27    10    12   am
    28    10     9    1
    29    13    14    1
    30    13    16    1
    31    13    12    1
    32    14    20   am
    33    44    45    1
    34    45    47   am
    35    20    21    1
    36    16    17    1
    37     9     8    1
    38     8     3   am
    39    48    49    1
    40     1     2    1
    41     3     2    1
    42     3     4    2
    43     2     5    1
    44   177   176   ar
    45    51    50    2
    46   178   176   ar
    47    17    19   ar
    48    17    18   ar
    49   176   175    1
    50    49    50    1
    51    49    52    1
    52     5     6    1
    53     5     7    1
    54    72    73    2
    55    72    71    1
    56    54    52    1
    57    52    53    1
    58   175   174    1
    59    75    76    1
    60    75    74    1
    61    77    78    1
    62    77    76    1
    63    71    74    1
    64    71    70    1
    65   174   171    1
    66   173   172    2
    67   169   167   ar
    68   172   171    1
    69   168   167   ar
    70    55    56    1
    71    86    85   ar
    72   167   166    1
    73    58    57    2
    74   171   170    1
    75    57    56    1
    76    85    87   ar
    77    85    84    1
    78    56    59    1
    79    83    84    1
    80    83    80    1
    81   166   163    1
    82   143   144    1
    83   143   142    1
    84    79    80    1
    85    60    59    1
    86    60    62    1
    87    59    61    1
    88   145   144    2
    89   165   164    2
    90    80    81    1
    91   139   138    1
    92   139   141    1
    93   140   138    1
    94   163   164    1
    95   163   162    1
    96    68    67    1
    97   138   135    1
    98    65    64    1
    99    65    66    2
   100   161   159    1
   101    64    67    1
   102    64    63    1
   103    81    82    2
   104   102   101    1
   105    67    69    1
   106   162   156   am
   107   135   134    1
   108   135   136    1
   109   159   158    1
   110   157   156    2
   111   137   136    2
   112   156   155    1
   113   125   124    1
   114   158   155    1
   115   158   160    1
   116   153   152    1
   117   101   100    1
   118   122   124   ar
   119   122   120   ar
   120   152   151    1
   121   124   123   ar
   122    95    96    1
   123   100    99    1
   124   155   154    1
   125   120   119   ar
   126   151   150    1
   127   123   121   ar
   128    99    96    1
   129   119   121   ar
   130   119   118    1
   131    96    97    1
   132    98    97    2
   133   118   115    1
   134   150   147    1
   135    97   103   am
   136   146   147    1
   137   115   114    1
   138   115   116    1
   139   129   128    2
   140   106   105    2
   141   147   148    1
   142   126   116   am
   143   126   127    1
   144   114   105   am
   145   105   104    1
   146   132   131    1
   147    93    92    1
   148    93    94    1
   149   103   104    1
   150   116   117    2
   151   128   127    1
   152   130   131    1
   153   130   127    1
   154   131   133    1
   155   148   149    2
   156   104   107    1
   157    92    89    1
   158    94    88    1
   159    91    90    2
   160   107   108    1
   161    88    89    1
   162    89    90    1
   163   109   108    1
   164   109   110    1
   165   110   111    2
   166   111   112    1
   167   111   113    1
