@<TRIPOS>MOLECULE
tmp/2pywA00.pdb
 161 153 0 0 0
SMALL
GASTEIGER

@<TRIPOS>ATOM
      1  N         61.8450    4.4900   11.7130 N.3    44  ASN44      -0.1225
      2  CA        61.2680    4.8180   10.4140 C.3    44  ASN44       0.1785
      3  C         61.4270    6.2590    9.9130 C.2    44  ASN44       0.2597
      4  O         61.2390    6.5010    8.7100 O.2    44  ASN44      -0.2718
      5  CB        59.7890    4.3660   10.3570 C.3    44  ASN44       0.1169
      6  CG        59.6480    2.8540   10.3700 C.2    44  ASN44       0.2627
      7  OD1       60.4840    2.1550    9.7980 O.2    44  ASN44      -0.2716
      8  ND2       58.5990    2.3340   11.0370 N.am   44  ASN44      -0.0877
      9  N         61.7700    7.2140   10.7870 N.am   45  LEU45      -0.1980
     10  CA        61.6340    8.6390   10.4030 C.3    45  LEU45       0.1596
     11  C         62.8990    9.4850   10.3770 C.2    45  LEU45       0.2287
     12  O         63.0290   10.3840    9.5250 O.2    45  LEU45      -0.2864
     13  CB        60.5940    9.3590   11.2760 C.3    45  LEU45       0.0297
     14  CG        59.1870    9.4260   10.6500 C.3    45  LEU45       0.0022
     15  CD1       58.5010    8.0360   10.7250 C.3    45  LEU45       0.0001
     16  CD2       58.3320   10.4970   11.2870 C.3    45  LEU45       0.0001
     17  N         60.0900   11.3460    5.4370 N.3    67  ILE67      -0.1245
     18  CA        60.1150   10.1150    6.2110 C.3    67  ILE67       0.1561
     19  C         61.2990    9.2880    5.7030 C.2    67  ILE67       0.2260
     20  O         61.3590    8.9060    4.5280 O.2    67  ILE67      -0.2867
     21  CB        58.7820    9.3310    6.0840 C.3    67  ILE67       0.0252
     22  CG1       57.5910   10.1770    6.5540 C.3    67  ILE67       0.0019
     23  CG2       58.8340    7.9900    6.8540 C.3    67  ILE67       0.0019
     24  CD1       56.2400    9.4440    6.4340 C.3    67  ILE67       0.0001
     25  N         62.4060    6.1840    6.0640 N.3    69  CYS69      -0.1221
     26  CA        62.2000    4.8320    5.5330 C.3    69  CYS69       0.1808
     27  C         61.5620    4.8550    4.1380 C.2    69  CYS69       0.2601
     28  O         61.6320    3.8700    3.4050 O.2    69  CYS69      -0.2717
     29  CB        61.3690    3.9730    6.5060 C.3    69  CYS69       0.0970
     30  SG        59.5860    4.4060    6.6190 S.3    69  CYS69      -0.0800
     31  N         60.9460    5.9760    3.7710 N.am   70  ILE70      -0.1979
     32  CA        60.3420    6.1080    2.4340 C.3    70  ILE70       0.1595
     33  C         61.2700    6.8970    1.4930 C.2    70  ILE70       0.2287
     34  O         61.4840    6.5040    0.3430 O.2    70  ILE70      -0.2864
     35  CB        58.9260    6.7730    2.4890 C.3    70  ILE70       0.0276
     36  CG1       57.9790    5.9990    3.4290 C.3    70  ILE70       0.0022
     37  CG2       58.3390    6.9820    1.0710 C.3    70  ILE70       0.0022
     38  CD1       57.3640    4.7260    2.8580 C.3    70  ILE70       0.0001
     39  N         58.0010   11.1340    0.3670 N.3    74  TRP74      -0.1241
     40  CA        57.0230   11.3410    1.4520 C.3    74  TRP74       0.1605
     41  C         57.4370   12.4910    2.3910 C.2    74  TRP74       0.2264
     42  O         58.0680   12.2500    3.4290 O.2    74  TRP74      -0.2867
     43  CB        56.7880   10.0480    2.2520 C.3    74  TRP74       0.0550
     44  CG        55.4570   10.0270    2.9980 C.ar   74  TRP74       0.0003
     45  CD1       54.8760   11.0640    3.6800 C.ar   74  TRP74       0.0946
     46  CD2       54.5670    8.9130    3.1400 C.ar   74  TRP74       0.0152
     47  NE1       53.6760   10.6680    4.2260 N.ar   74  TRP74      -0.2442
     48  CE2       53.4650    9.3510    3.9180 C.ar   74  TRP74       0.0810
     49  CE3       54.5890    7.5890    2.6880 C.ar   74  TRP74       0.0012
     50  CZ2       52.3840    8.5030    4.2450 C.ar   74  TRP74       0.0191
     51  CZ3       53.5250    6.7450    3.0190 C.ar   74  TRP74       0.0001
     52  CH2       52.4390    7.2070    3.7920 C.ar   74  TRP74       0.0015
     53  N         49.7660   11.3960    9.1480 N.3   178  LEU178     -0.1231
     54  CA        50.4050   10.1430    8.8320 C.3   178  LEU178      0.1693
     55  C         49.7040    8.9600    9.5250 C.2   178  LEU178      0.2592
     56  O         49.3370    7.9680    8.8740 O.2   178  LEU178     -0.2718
     57  CB        51.9000   10.1800    9.2040 C.3   178  LEU178      0.0284
     58  CG        52.6650    8.8780    9.0580 C.3   178  LEU178      0.0019
     59  CD1       52.5810    8.3760    7.6220 C.3   178  LEU178      0.0001
     60  CD2       54.1390    9.0600    9.5220 C.3   178  LEU178      0.0001
     61  N         49.4790    9.0920   10.8270 N.am  179  THR179     -0.1953
     62  CA        48.7810    8.0640   11.6120 C.3   179  THR179      0.1897
     63  C         47.3350    7.8400   11.1630 C.2   179  THR179      0.2313
     64  O         46.8790    6.7020   11.0710 O.2   179  THR179     -0.2863
     65  CB        48.8570    8.3850   13.1110 C.3   179  THR179      0.1794
     66  OG1       50.2370    8.4620   13.4870 O.3   179  THR179     -0.2208
     67  CG2       48.1440    7.2830   13.9550 C.3   179  THR179      0.0378
     68  N         47.8860    5.6430    7.9800 N.3   182  VAL182     -0.1231
     69  CA        48.4450    4.2980    8.0890 C.3   182  VAL182      0.1692
     70  C         47.7980    3.3990    9.1470 C.2   182  VAL182      0.2591
     71  O         47.7100    2.1730    8.9470 O.2   182  VAL182     -0.2718
     72  CB        50.0040    4.2770    8.1850 C.3   182  VAL182      0.0266
     73  CG1       50.5880    4.9990    6.9760 C.3   182  VAL182      0.0020
     74  CG2       50.4990    4.9260    9.5140 C.3   182  VAL182      0.0020
     75  N         47.3150    3.9930   10.2390 N.am  183  VAL183     -0.1980
     76  CA        46.6340    3.1910   11.2670 C.3   183  VAL183      0.1595
     77  C         45.1220    3.0530   10.9670 C.2   183  VAL183      0.2287
     78  O         44.5520    1.9520   11.0150 O.2   183  VAL183     -0.2864
     79  CB        46.8760    3.7570   12.6740 C.3   183  VAL183      0.0276
     80  CG1       46.1380    2.8970   13.7460 C.3   183  VAL183      0.0022
     81  CG2       48.3940    3.7470   12.9690 C.3   183  VAL183      0.0022
     82  N         53.2160    7.1490   19.6080 N.3   236  ASP236     -0.1239
     83  CA        53.8580    6.0420   18.8760 C.3   236  ASP236      0.1674
     84  C         54.4320    5.0320   19.8930 C.2   236  ASP236      0.2266
     85  O         55.5880    4.6050   19.7750 O.2   236  ASP236     -0.2867
     86  CB        54.9480    6.6040   17.9250 C.3   236  ASP236      0.1410
     87  CG        55.3610    5.6170   16.8190 C.2   236  ASP236      0.3668
     88  OD1       54.5380    4.7610   16.3980 O.co2 236  ASP236     -0.2456
     89  OD2       56.5200    5.7240   16.3790 O.co2 236  ASP236     -0.2456
     90  N         54.7900    1.8840   20.7700 N.3   238  HIS238     -0.1241
     91  CA        55.0050    0.4670   20.5410 C.3   238  HIS238      0.1621
     92  C         56.3110    0.0380   21.2490 C.2   238  HIS238      0.2264
     93  O         56.9820    0.8620   21.8560 O.2   238  HIS238     -0.2867
     94  CB        55.0510    0.1740   19.0290 C.3   238  HIS238      0.0745
     95  CG        56.0070    1.0470   18.2810 C.ar  238  HIS238      0.0817
     96  ND1       57.3490    0.7650   18.1840 N.ar  238  HIS238     -0.2268
     97  CD2       55.8210    2.2190   17.6210 C.ar  238  HIS238      0.1154
     98  CE1       57.9550    1.7130   17.4900 C.ar  238  HIS238      0.1986
     99  NE2       57.0540    2.6170   17.1500 N.ar  238  HIS238     -0.2212
    100  N         61.3620    8.6280   21.7190 N.3   253  ASP253     -0.1239
    101  CA        60.7110    8.9130   20.4190 C.3   253  ASP253      0.1674
    102  C         59.2160    9.3620   20.4910 C.2   253  ASP253      0.2266
    103  O         58.3820    8.8250   19.7670 O.2   253  ASP253     -0.2867
    104  CB        60.8900    7.6770   19.4990 C.3   253  ASP253      0.1410
    105  CG        60.5880    7.9650   18.0270 C.2   253  ASP253      0.3668
    106  OD1       60.4850    9.1560   17.6520 O.co2 253  ASP253     -0.2456
    107  OD2       60.4490    6.9680   17.2530 O.co2 253  ASP253     -0.2456
    108  N         57.8550   11.8860   19.1380 N.3   255  GLU255     -0.1231
    109  CA        57.6760   12.9140   18.1120 C.3   255  GLU255      0.1699
    110  C         56.2150   13.0380   17.6050 C.2   255  GLU255      0.2592
    111  O         55.8420   14.0910   17.1270 O.2   255  GLU255     -0.2718
    112  CB        58.6180   12.6790   16.9340 C.3   255  GLU255      0.0402
    113  CG        58.2780   11.4410   16.1570 C.3   255  GLU255      0.1161
    114  CD        59.2580   11.1580   15.0320 C.2   255  GLU255      0.3649
    115  OE1       59.7770   12.1180   14.4120 O.co2 255  GLU255     -0.2457
    116  OE2       59.5280    9.9740   14.7840 O.co2 255  GLU255     -0.2457
    117  N         55.4160   11.9730   17.7180 N.am  256  PHE256     -0.1976
    118  CA        54.0080   11.9790   17.2460 C.3   256  PHE256      0.1639
    119  C         53.0710   12.5510   18.3030 C.2   256  PHE256      0.2290
    120  O         51.8470   12.5490   18.1350 O.2   256  PHE256     -0.2864
    121  CB        53.5300   10.5600   16.9270 C.3   256  PHE256      0.0560
    122  CG        54.0100   10.0230   15.6150 C.ar  256  PHE256     -0.0200
    123  CD1       53.1500    9.9700   14.5070 C.ar  256  PHE256     -0.0042
    124  CD2       55.2930    9.5010   15.4980 C.ar  256  PHE256     -0.0042
    125  CE1       53.5920    9.4480   13.2800 C.ar  256  PHE256     -0.0003
    126  CE2       55.7610    8.9880   14.2890 C.ar  256  PHE256     -0.0003
    127  CZ        54.9020    8.9450   13.1650 C.ar  256  PHE256     -0.0000
    128  N         47.2140   -2.9710   11.5140 N.3   363  ARG363     -0.1231
    129  CA        48.0010   -2.1690   10.5880 C.3   363  ARG363      0.1694
    130  C         49.4550   -2.6550   10.4330 C.2   363  ARG363      0.2591
    131  O         50.0760   -2.4360    9.3800 O.2   363  ARG363     -0.2718
    132  CB        47.9120   -0.6710   10.9060 C.3   363  ARG363      0.0321
    133  CG        48.7220   -0.2070   12.1270 C.3   363  ARG363      0.0489
    134  CD        50.1380    0.1980   11.6600 C.3   363  ARG363      0.2205
    135  NE        50.8850    0.9110   12.6840 N.pl3 363  ARG363     -0.0865
    136  CZ        51.8110    1.8300   12.4180 C.cat 363  ARG363      0.5346
    137  NH1       52.1140    2.1320   11.1580 N.pl3 363  ARG363      0.1354
    138  NH2       52.4610    2.4270   13.4160 N.pl3 363  ARG363      0.1354
    139  N         49.9800   -3.3100   11.4670 N.am  364  ARG364     -0.1980
    140  CA        51.3290   -3.9070   11.4100 C.3   364  ARG364      0.1597
    141  C         51.3980   -5.1350   10.5210 C.2   364  ARG364      0.2287
    142  O         52.4690   -5.4660   10.0070 O.2   364  ARG364     -0.2864
    143  CB        51.8440   -4.2690   12.8180 C.3   364  ARG364      0.0334
    144  CG        52.0560   -3.0590   13.7110 C.3   364  ARG364      0.0492
    145  CD        53.0190   -2.0610   13.0980 C.3   364  ARG364      0.2205
    146  NE        53.5130   -1.1520   14.1350 N.pl3 364  ARG364     -0.0865
    147  CZ        54.4720   -0.2630   13.9500 C.cat 364  ARG364      0.5346
    148  NH1       55.0660   -0.1190   12.7430 N.pl3 364  ARG364      0.1354
    149  NH2       54.8310    0.5040   14.9600 N.pl3 364  ARG364      0.1354
    150  N         51.8600   -0.5320    5.6330 N.3   368  VAL368     -0.1231
    151  CA        53.1700   -0.1200    5.1040 C.3   368  VAL368      0.1692
    152  C         54.3490   -0.3940    6.0610 C.2   368  VAL368      0.2591
    153  O         55.4770   -0.6440    5.6100 O.2   368  VAL368     -0.2718
    154  CB        53.1630    1.3620    4.6580 C.3   368  VAL368      0.0266
    155  CG1       52.8580    2.3270    5.8380 C.3   368  VAL368      0.0020
    156  CG2       54.4810    1.7280    3.9410 C.3   368  VAL368      0.0020
    157  N         54.0870   -0.3710    7.3690 N.am  369  ALA369     -0.1980
    158  CA        55.1650   -0.3980    8.3530 C.3   369  ALA369      0.1597
    159  C         54.9580   -1.6300    9.2260 C.2   369  ALA369      0.2287
    160  O         54.0630   -1.6320   10.0820 O.2   369  ALA369     -0.2864
    161  CB        55.1350    0.8880    9.2040 C.3   369  ALA369      0.0319
@<TRIPOS>BOND
     1    34    33    2
     2    39    40    1
     3    37    35    1
     4    40    43    1
     5    40    41    1
     6    33    32    1
     7    43    44    1
     8    41    42    2
     9    32    35    1
    10    32    31    1
    11    35    36    1
    12    49    51   ar
    13    49    46   ar
    14    38    36    1
    15    44    46   ar
    16    44    45   ar
    17    51    52   ar
    18    46    48   ar
    19    28    27    2
    20    45    47   ar
    21    31    27   am
    22    52    50   ar
    23    48    47   ar
    24    48    50   ar
    25   156   154    1
    26    27    26    1
    27    20    19    2
    28   154   151    1
    29   154   155    1
    30   151   150    1
    31   151   152    1
    32    17    18    1
    33    26    25    1
    34    26    29    1
    35   153   152    2
    36    19    18    1
    37   152   157   am
    38    21    18    1
    39    21    22    1
    40    21    23    1
    41    24    22    1
    42    29    30    1
    43    73    72    1
    44   157   158    1
    45    59    58    1
    46    68    69    1
    47    69    72    1
    48    69    70    1
    49    72    74    1
    50   158   161    1
    51   158   159    1
    52     4     3    2
    53    54    53    1
    54    54    57    1
    55    54    55    1
    56    56    55    2
    57    71    70    2
    58    58    57    1
    59    58    60    1
    60    70    75   am
    61   159   160    2
    62   131   130    2
    63    12    11    2
    64    55    61   am
    65     7     6    2
    66     3     2    1
    67     3     9   am
    68   142   141    2
    69    75    76    1
    70     5     6    1
    71     5     2    1
    72     6     8   am
    73    11    10    1
    74    10     9    1
    75    10    13    1
    76     2     1    1
    77   130   129    1
    78   130   139   am
    79   141   140    1
    80   129   132    1
    81   129   128    1
    82    14    15    1
    83    14    13    1
    84    14    16    1
    85    61    62    1
    86   132   133    1
    87    77    78    2
    88    77    76    1
    89    64    63    2
    90   137   136    1
    91    63    62    1
    92    76    79    1
    93   140   139    1
    94   140   143    1
    95    62    65    1
    96   134   133    1
    97   134   135    1
    98   136   135    2
    99   136   138    1
   100    79    81    1
   101    79    80    1
   102   148   147    1
   103   143   144    1
   104   145   144    1
   105   145   146    1
   106    65    66    1
   107    65    67    1
   108   127   125   ar
   109   127   126   ar
   110   125   123   ar
   111   147   146    2
   112   147   149    1
   113   126   124   ar
   114   115   114   ar
   115   123   122   ar
   116   116   114   ar
   117   114   113    1
   118   124   122   ar
   119   122   121    1
   120   113   112    1
   121    89    87   ar
   122    88    87   ar
   123    87    86    1
   124   121   118    1
   125   112   109    1
   126   111   110    2
   127    99    98   ar
   128    99    97   ar
   129   118   117    1
   130   118   119    1
   131   107   105   ar
   132    98    96   ar
   133   110   117   am
   134   110   109    1
   135    97    95   ar
   136   106   105   ar
   137    86    83    1
   138   105   104    1
   139   109   108    1
   140   120   119    2
   141    96    95   ar
   142    95    94    1
   143    83    82    1
   144    83    84    1
   145    94    91    1
   146   104   101    1
   147   103   102    2
   148    85    84    2
   149   101   102    1
   150   101   100    1
   151    91    90    1
   152    91    92    1
   153    92    93    2
