@<TRIPOS>MOLECULE
tmp/2pyxB02.pdb
 97 90 0 0 0
SMALL
GASTEIGER

@<TRIPOS>ATOM
      1  N         50.6080   36.7440  -13.8000 N.3    23  LEU23      -0.1245
      2  CA        50.7390   37.5590  -12.5670 C.3    23  LEU23       0.1561
      3  C         50.4340   36.7110  -11.3300 C.2    23  LEU23       0.2260
      4  O         51.0980   36.8550  -10.3030 O.2    23  LEU23      -0.2867
      5  CB        49.8650   38.8370  -12.6540 C.3    23  LEU23       0.0270
      6  CG        50.4050   39.9140  -13.6010 C.3    23  LEU23       0.0019
      7  CD1       49.3540   41.0160  -13.7090 C.3    23  LEU23       0.0001
      8  CD2       51.7490   40.4740  -13.1600 C.3    23  LEU23       0.0001
      9  N         53.4070   35.8080   -8.6130 N.3    27  GLU27      -0.1245
     10  CA        53.2700   36.3490   -7.2680 C.3    27  GLU27       0.1567
     11  C         53.2980   35.2690   -6.1930 C.2    27  GLU27       0.2260
     12  O         53.8530   35.4960   -5.1000 O.2    27  GLU27      -0.2867
     13  CB        52.0070   37.2380   -7.1410 C.3    27  GLU27       0.0388
     14  CG        51.7140   37.7470   -5.7550 C.3    27  GLU27       0.1160
     15  CD        52.7470   38.7130   -5.2290 C.2    27  GLU27       0.3649
     16  OE1       53.7080   39.1110   -5.9420 O.co2  27  GLU27      -0.2457
     17  OE2       52.5660   39.1120   -4.0720 O.co2  27  GLU27      -0.2457
     18  N         52.6510   50.8990  -17.0130 N.3    63  SER63      -0.1217
     19  CA        52.4490   49.7320  -16.1530 C.3    63  SER63       0.1889
     20  C         52.8850   48.4330  -16.7840 C.2    63  SER63       0.2288
     21  O         53.2940   47.5080  -16.0590 O.2    63  SER63      -0.2866
     22  CB        50.9770   49.6310  -15.7740 C.3    63  SER63       0.2089
     23  OG        50.1520   49.7520  -16.9370 O.3    63  SER63      -0.2183
     24  N         56.2210   47.0130  -15.7930 N.3    65  SER65      -0.1202
     25  CA        56.1800   46.2980  -14.5060 C.3    65  SER65       0.2020
     26  C         55.5230   44.9450  -14.6360 C.2    65  SER65       0.2619
     27  O         56.0160   43.9550  -14.0800 O.2    65  SER65      -0.2717
     28  CB        55.4180   47.0960  -13.4620 C.3    65  SER65       0.2103
     29  OG        55.3110   46.3980  -12.2150 O.3    65  SER65      -0.2182
     30  N         54.4100   44.8960  -15.3610 N.am   66  THR66      -0.1952
     31  CA        53.7510   43.5930  -15.5740 C.3    66  THR66       0.1897
     32  C         54.6890   42.5890  -16.2350 C.2    66  THR66       0.2313
     33  O         54.8210   41.4710  -15.7510 O.2    66  THR66      -0.2863
     34  CB        52.4850   43.7800  -16.4190 C.3    66  THR66       0.1794
     35  OG1       51.5550   44.5530  -15.6850 O.3    66  THR66      -0.2208
     36  CG2       51.8440   42.4690  -16.8500 C.3    66  THR66       0.0378
     37  N         57.4320   41.5460  -13.6920 N.3    69  LYS69      -0.1245
     38  CA        56.9080   40.6210  -12.6590 C.3    69  LYS69       0.1561
     39  C         56.6420   39.2300  -13.2120 C.2    69  LYS69       0.2260
     40  O         56.9170   38.2310  -12.5380 O.2    69  LYS69      -0.2867
     41  CB        55.6290   41.1530  -12.0380 C.3    69  LYS69       0.0271
     42  CG        55.8380   42.3830  -11.1590 C.3    69  LYS69       0.0035
     43  CD        54.5450   42.8420  -10.5080 C.3    69  LYS69       0.0206
     44  CE        53.5070   43.4470  -11.4740 C.3    69  LYS69       0.1093
     45  NZ        52.2530   43.8490  -10.7940 N.3    69  LYS69      -0.1314
     46  N         45.6560   44.5130  -16.4280 N.3   365  GLU365     -0.1231
     47  CA        46.7930   44.5620  -15.4840 C.3   365  GLU365      0.1699
     48  C         46.2970   44.8800  -14.0660 C.2   365  GLU365      0.2592
     49  O         46.7480   44.2530  -13.0940 O.2   365  GLU365     -0.2718
     50  CB        47.8240   45.6020  -15.8700 C.3   365  GLU365      0.0402
     51  CG        48.5530   45.4140  -17.1920 C.3   365  GLU365      0.1161
     52  CD        49.5310   46.5630  -17.3620 C.2   365  GLU365      0.3649
     53  OE1       50.6330   46.4910  -16.8240 O.co2 365  GLU365     -0.2457
     54  OE2       49.1520   47.5790  -17.9780 O.co2 365  GLU365     -0.2457
     55  N         45.4290   45.8840  -13.9560 N.am  366  TRP366     -0.1976
     56  CA        44.9450   46.3030  -12.6270 C.3   366  TRP366      0.1640
     57  C         44.2070   45.1510  -11.9680 C.2   366  TRP366      0.2290
     58  O         44.4430   44.7960  -10.8110 O.2   366  TRP366     -0.2864
     59  CB        44.0250   47.5380  -12.6640 C.3   366  TRP366      0.0576
     60  CG        43.3960   47.7160  -11.3610 C.ar  366  TRP366      0.0006
     61  CD1       43.9940   48.1760  -10.2260 C.ar  366  TRP366      0.0946
     62  CD2       42.0810   47.2940  -10.9850 C.ar  366  TRP366      0.0152
     63  NE1       43.1270   48.0910   -9.1690 N.ar  366  TRP366     -0.2442
     64  CE2       41.9400   47.5540   -9.5950 C.ar  366  TRP366      0.0810
     65  CE3       40.9920   46.7670  -11.6810 C.ar  366  TRP366      0.0012
     66  CZ2       40.7670   47.2710   -8.9020 C.ar  366  TRP366      0.0191
     67  CZ3       39.8500   46.4780  -10.9930 C.ar  366  TRP366      0.0001
     68  CH2       39.7340   46.7440   -9.6070 C.ar  366  TRP366      0.0015
     69  N         46.5670   42.1290  -11.2140 N.3   369  SER369     -0.1217
     70  CA        47.5520   42.4030  -10.1720 C.3   369  SER369      0.1889
     71  C         46.8610   42.5680   -8.8130 C.2   369  SER369      0.2288
     72  O         47.4080   42.1570   -7.7730 O.2   369  SER369     -0.2866
     73  CB        48.4310   43.6130  -10.5170 C.3   369  SER369      0.2089
     74  OG        47.6790   44.8090  -10.6500 O.3   369  SER369     -0.2183
     75  N         46.0470   39.1740   -7.5220 N.3   372  ALA372     -0.1231
     76  CA        47.2430   38.4770   -7.0520 C.3   372  ALA372      0.1694
     77  C         47.6840   39.0250   -5.7060 C.2   372  ALA372      0.2591
     78  O         48.1200   38.2800   -4.8440 O.2   372  ALA372     -0.2718
     79  CB        48.3900   38.5880   -8.0670 C.3   372  ALA372      0.0304
     80  N         47.5570   40.3360   -5.5020 N.am  373  GLN373     -0.1979
     81  CA        47.9890   40.9780   -4.2400 C.3   373  GLN373      0.1601
     82  C         46.9790   40.7540   -3.1120 C.2   373  GLN373      0.2287
     83  O         47.3330   40.8950   -1.9220 O.2   373  GLN373     -0.2864
     84  CB        48.1450   42.4680   -4.4240 C.3   373  GLN373      0.0394
     85  CG        49.2440   42.9360   -5.3360 C.3   373  GLN373      0.0908
     86  CD        49.1610   44.4380   -5.4950 C.2   373  GLN373      0.2608
     87  OE1       49.2420   45.1790   -4.5040 O.2   373  GLN373     -0.2717
     88  NE2       48.9800   44.8980   -6.7170 N.am  373  GLN373     -0.0878
     89  N         45.9740   54.6600   -5.8900 N.3   450  GLU450     -0.1245
     90  CA        46.3470   53.9560   -7.1080 C.3   450  GLU450      0.1567
     91  C         45.3790   54.2010   -8.2840 C.2   450  GLU450      0.2260
     92  O         44.9370   53.2650   -8.9420 O.2   450  GLU450     -0.2867
     93  CB        46.5300   52.4590   -6.8180 C.3   450  GLU450      0.0388
     94  CG        47.6830   52.2300   -5.8390 C.3   450  GLU450      0.1160
     95  CD        48.0280   50.7720   -5.6640 C.2   450  GLU450      0.3649
     96  OE1       48.4600   50.1420   -6.6590 O.co2 450  GLU450     -0.2457
     97  OE2       47.8970   50.2800   -4.5210 O.co2 450  GLU450     -0.2457
@<TRIPOS>BOND
     1    54    52   ar
     2    52    51    1
     3    52    53   ar
     4    51    50    1
     5    18    19    1
     6    23    22    1
     7    36    34    1
     8    20    19    1
     9    20    21    2
    10    46    47    1
    11    34    35    1
    12    34    31    1
    13    32    33    2
    14    32    31    1
    15    19    22    1
    16    50    47    1
    17    24    25    1
    18    31    30    1
    19    47    48    1
    20    30    26   am
    21    26    25    1
    22    26    27    2
    23    25    28    1
    24    48    55   am
    25    48    49    2
    26    55    56    1
    27     1     2    1
    28     7     6    1
    29    37    38    1
    30     6     8    1
    31     6     5    1
    32    28    29    1
    33    39    38    1
    34    39    40    2
    35    59    56    1
    36    59    60    1
    37    38    41    1
    38     5     2    1
    39    56    57    1
    40     2     3    1
    41    41    42    1
    42    57    58    2
    43    65    67   ar
    44    65    62   ar
    45    44    45    1
    46    44    43    1
    47    60    62   ar
    48    60    61   ar
    49     3     4    2
    50    69    70    1
    51    42    43    1
    52    67    68   ar
    53    62    64   ar
    54    74    73    1
    55    73    70    1
    56    61    63   ar
    57    70    71    1
    58    68    66   ar
    59    64    63   ar
    60    64    66   ar
    61    92    91    2
    62    71    72    2
    63     9    10    1
    64    91    90    1
    65    79    76    1
    66    75    76    1
    67    10    13    1
    68    10    11    1
    69    13    14    1
    70    90    93    1
    71    90    89    1
    72    76    77    1
    73    93    94    1
    74    88    86   am
    75    96    95   ar
    76    11    12    2
    77    16    15   ar
    78    94    95    1
    79    14    15    1
    80    77    80   am
    81    77    78    2
    82    95    97   ar
    83    80    81    1
    84    86    85    1
    85    86    87    2
    86    85    84    1
    87    15    17   ar
    88    84    81    1
    89    81    82    1
    90    82    83    2
