@<TRIPOS>MOLECULE
tmp/2pyxB00.pdb
 67 58 0 0 0
SMALL
GASTEIGER

@<TRIPOS>ATOM
      1  N         41.6390   32.5560  -22.9490 N.3    13  GLY13      -0.1210
      2  CA        43.0390   32.8880  -23.0510 C.3    13  GLY13       0.1956
      3  C         43.1830   34.3460  -23.4650 C.2    13  GLY13       0.2612
      4  O         42.6130   35.2760  -22.8480 O.2    13  GLY13      -0.2717
      5  N         43.9290   34.5960  -24.5290 N.am   14  GLY14      -0.1942
      6  CA        44.1760   35.9660  -24.9360 C.3    14  GLY14       0.2014
      7  C         45.0170   36.6970  -23.9030 C.2    14  GLY14       0.2640
      8  O         45.5660   36.1090  -22.9750 O.2    14  GLY14      -0.2714
      9  N         45.1120   38.0170  -24.0760 N.am   15  THR15      -0.1936
     10  CA        45.8820   38.8200  -23.1760 C.3    15  THR15       0.2028
     11  C         45.2490   38.8260  -21.7950 C.2    15  THR15       0.2642
     12  O         45.9790   38.7960  -20.7820 O.2    15  THR15      -0.2714
     13  CB        46.0320   40.2750  -23.6720 C.3    15  THR15       0.1808
     14  OG1       44.7360   40.8290  -23.9230 O.3    15  THR15      -0.2208
     15  CG2       46.8750   40.3420  -24.9390 C.3    15  THR15       0.0379
     16  N         43.9170   38.8540  -21.7360 N.am   16  ALA16      -0.1977
     17  CA        43.2270   38.8440  -20.4390 C.3    16  ALA16       0.1597
     18  C         43.5920   37.6010  -19.6230 C.2    16  ALA16       0.2287
     19  O         44.0100   37.6960  -18.4630 O.2    16  ALA16      -0.2864
     20  CB        41.7280   38.9270  -20.6140 C.3    16  ALA16       0.0319
     21  N         47.8570   47.1340  -30.6390 N.3    58  GLU58      -0.1245
     22  CA        47.2530   47.6680  -29.4420 C.3    58  GLU58       0.1567
     23  C         48.3200   48.4150  -28.6280 C.2    58  GLU58       0.2260
     24  O         49.4970   48.0830  -28.7100 O.2    58  GLU58      -0.2867
     25  CB        46.6800   46.5140  -28.6030 C.3    58  GLU58       0.0388
     26  CG        45.7070   46.9570  -27.5800 C.3    58  GLU58       0.1160
     27  CD        44.9860   45.8030  -26.8810 C.2    58  GLU58       0.3649
     28  OE1       45.1420   44.6460  -27.3210 O.co2  58  GLU58      -0.2457
     29  OE2       44.2500   46.0760  -25.8970 O.co2  58  GLU58      -0.2457
     30  N         48.8210   41.9620  -30.2290 N.3   171  ALA171     -0.1245
     31  CA        48.2800   41.2580  -29.0820 C.3   171  ALA171      0.1562
     32  C         48.2740   39.7510  -29.2870 C.2   171  ALA171      0.2260
     33  O         48.4380   39.0100  -28.3240 O.2   171  ALA171     -0.2867
     34  CB        46.8620   41.7410  -28.7530 C.3   171  ALA171      0.0290
     35  N         50.0230   37.2380  -26.6850 N.3   175  SER175     -0.1217
     36  CA        49.3310   36.0780  -26.0890 C.3   175  SER175      0.1889
     37  C         50.1040   34.7640  -26.2950 C.2   175  SER175      0.2288
     38  O         50.1540   33.9110  -25.4160 O.2   175  SER175     -0.2866
     39  CB        47.9390   35.9630  -26.6820 C.3   175  SER175      0.2089
     40  OG        47.1740   37.0590  -26.2510 O.3   175  SER175     -0.2183
     41  N         37.4530   35.3250  -18.5200 N.3   225  CYS225     -0.1235
     42  CA        38.1710   35.9640  -19.6240 C.3   225  CYS225      0.1677
     43  C         37.5750   35.6040  -20.9980 C.2   225  CYS225      0.2270
     44  O         38.3110   35.5700  -22.0080 O.2   225  CYS225     -0.2867
     45  CB        39.6530   35.5940  -19.5770 C.3   225  CYS225      0.0956
     46  SG        40.4490   36.1990  -18.0730 S.3   225  CYS225     -0.0801
     47  N         35.6520   37.4030  -22.9450 N.3   227  GLY227     -0.1225
     48  CA        35.3930   38.5240  -23.8050 C.3   227  GLY227      0.1811
     49  C         34.0380   39.1450  -23.5830 C.2   227  GLY227      0.2280
     50  O         33.3970   38.9290  -22.5630 O.2   227  GLY227     -0.2866
     51  N         39.2860   41.6810  -18.4430 N.3   348  GLY348     -0.1225
     52  CA        39.2000   41.9920  -19.8670 C.3   348  GLY348      0.1811
     53  C         37.8250   42.4560  -20.2660 C.2   348  GLY348      0.2280
     54  O         37.0520   43.0140  -19.4450 O.2   348  GLY348     -0.2866
     55  N         35.1600   40.8730  -20.7170 N.3   349  ALA349     -0.1245
     56  CA        34.0730   40.2600  -19.9470 C.3   349  ALA349      0.1562
     57  C         33.5900   41.1660  -18.8210 C.2   349  ALA349      0.2260
     58  O         32.4260   41.0850  -18.4270 O.2   349  ALA349     -0.2867
     59  CB        34.4860   38.9670  -19.3850 C.3   349  ALA349      0.0290
     60  N         43.0490   45.1360  -17.4460 N.3   364  ILE364     -0.1245
     61  CA        43.5070   43.7530  -17.2490 C.3   364  ILE364      0.1561
     62  C         44.6380   43.6910  -16.2290 C.2   364  ILE364      0.2260
     63  O         44.6120   42.8850  -15.2960 O.2   364  ILE364     -0.2867
     64  CB        43.9130   43.1270  -18.6240 C.3   364  ILE364      0.0252
     65  CG1       42.6770   42.8620  -19.4800 C.3   364  ILE364      0.0019
     66  CG2       44.6790   41.8680  -18.4280 C.3   364  ILE364      0.0019
     67  CD1       42.9780   42.6200  -20.9360 C.3   364  ILE364      0.0001
@<TRIPOS>BOND
     1    21    22    1
     2    30    31    1
     3    22    23    1
     4    22    25    1
     5    32    31    1
     6    32    33    2
     7    31    34    1
     8    24    23    2
     9    25    26    1
    10    26    27    1
    11    28    27   ar
    12    27    29   ar
    13    35    36    1
    14    39    40    1
    15    39    36    1
    16    37    36    1
    17    37    38    2
    18    15    13    1
    19     6     5    1
    20     6     7    1
    21     5     3   am
    22     9     7   am
    23     9    10    1
    24    14    13    1
    25     7     8    2
    26    48    49    1
    27    48    47    1
    28    13    10    1
    29    49    50    2
    30     3     2    1
    31     3     4    2
    32    10    11    1
    33     2     1    1
    34    44    43    2
    35    11    16   am
    36    11    12    2
    37    16    17    1
    38    43    42    1
    39    67    65    1
    40    55    56    1
    41    20    17    1
    42    17    18    1
    43    53    52    1
    44    53    54    2
    45    56    59    1
    46    56    57    1
    47    52    51    1
    48    42    45    1
    49    42    41    1
    50    18    19    2
    51    45    46    1
    52    65    64    1
    53    57    58    2
    54    64    66    1
    55    64    61    1
    56    60    61    1
    57    61    62    1
    58    62    63    2
