@<TRIPOS>MOLECULE
tmp/2pyyB00.pdb
 112 105 0 0 0
SMALL
GASTEIGER

@<TRIPOS>ATOM
      1  N         65.2100   29.0810   63.5200 N.3     7  ARG7       -0.1245
      2  CA        65.4850   27.9210   62.6990 C.3     7  ARG7        0.1563
      3  C         66.8650   27.4550   63.1590 C.2     7  ARG7        0.2260
      4  O         67.7950   28.2540   63.3090 O.2     7  ARG7       -0.2867
      5  CB        65.4750   28.3290   61.2210 C.3     7  ARG7        0.0307
      6  CG        65.7520   27.2130   60.2350 C.3     7  ARG7        0.0489
      7  CD        67.1950   27.2730   59.7790 C.3     7  ARG7        0.2205
      8  NE        67.5920   26.1040   59.0070 N.pl3   7  ARG7       -0.0865
      9  CZ        67.0390   25.7290   57.8580 C.cat   7  ARG7        0.5346
     10  NH1       66.0500   26.4380   57.3260 N.pl3   7  ARG7        0.1354
     11  NH2       67.4600   24.6290   57.2440 N.pl3   7  ARG7        0.1354
     12  N         70.3730   26.1170   62.9960 N.3     9  ILE9       -0.1245
     13  CA        71.4590   26.1460   62.0220 C.3     9  ILE9        0.1561
     14  C         72.7300   26.6320   62.7310 C.2     9  ILE9        0.2260
     15  O         72.9980   27.8260   62.8020 O.2     9  ILE9       -0.2867
     16  CB        71.1140   27.0840   60.8230 C.3     9  ILE9        0.0252
     17  CG1       72.3190   27.1840   59.8790 C.3     9  ILE9        0.0019
     18  CG2       70.6720   28.4580   61.3270 C.3     9  ILE9        0.0019
     19  CD1       71.9350   27.0690   58.4190 C.3     9  ILE9        0.0001
     20  N         63.6480   27.7560   56.0900 N.3    44  VAL44      -0.1245
     21  CA        63.5060   29.1830   55.9030 C.3    44  VAL44       0.1561
     22  C         62.1220   29.5300   55.3490 C.2    44  VAL44       0.2260
     23  O         61.4610   30.4190   55.8710 O.2    44  VAL44      -0.2867
     24  CB        64.6050   29.6990   54.9790 C.3    44  VAL44       0.0252
     25  CG1       64.3750   31.1730   54.6590 C.3    44  VAL44       0.0019
     26  CG2       65.9570   29.5300   55.6800 C.3    44  VAL44       0.0019
     27  N         69.7700   32.3680   60.4100 N.3    62  ALA62      -0.1231
     28  CA        70.8150   32.6260   59.4440 C.3    62  ALA62       0.1694
     29  C         70.0130   32.9700   58.1850 C.2    62  ALA62       0.2592
     30  O         70.1180   32.3010   57.1590 O.2    62  ALA62      -0.2718
     31  CB        71.6460   31.3620   59.2230 C.3    62  ALA62       0.0304
     32  N         69.2010   34.0160   58.2980 N.am   63  ILE63      -0.1966
     33  CA        68.3160   34.4700   57.2360 C.3    63  ILE63       0.1727
     34  C         68.8840   35.4930   56.2470 C.2    63  ILE63       0.2616
     35  O         69.0020   36.6750   56.5610 O.2    63  ILE63      -0.2715
     36  CB        67.0110   35.0620   57.8510 C.3    63  ILE63       0.0290
     37  CG1       66.4660   34.1070   58.9190 C.3    63  ILE63       0.0022
     38  CG2       65.9590   35.2820   56.7440 C.3    63  ILE63       0.0023
     39  CD1       65.1740   34.5590   59.5870 C.3    63  ILE63       0.0001
     40  N         69.2260   35.0410   55.0480 N.am   64  SER64      -0.1950
     41  CA        69.7760   35.9260   54.0310 C.3    64  SER64       0.1924
     42  C         68.7740   36.9790   53.5830 C.2    64  SER64       0.2314
     43  O         67.6010   36.6870   53.3570 O.2    64  SER64      -0.2863
     44  CB        70.2080   35.1070   52.8190 C.3    64  SER64       0.2116
     45  OG        71.2220   34.1980   53.1820 O.3    64  SER64      -0.2180
     46  N         62.7870   38.5040   49.0330 N.3    69  ARG69      -0.1245
     47  CA        62.2510   38.5300   50.3820 C.3    69  ARG69       0.1563
     48  C         61.9350   39.9670   50.8010 C.2    69  ARG69       0.2260
     49  O         60.9320   40.2300   51.4690 O.2    69  ARG69      -0.2867
     50  CB        63.2490   37.8850   51.3550 C.3    69  ARG69       0.0307
     51  CG        63.4730   36.4030   51.0610 C.3    69  ARG69       0.0489
     52  CD        64.5630   35.7860   51.9230 C.3    69  ARG69       0.2205
     53  NE        64.6700   34.3480   51.6930 N.pl3  69  ARG69      -0.0865
     54  CZ        65.6240   33.5750   52.1960 C.cat  69  ARG69       0.5346
     55  NH1       66.5780   34.0980   52.9700 N.pl3  69  ARG69       0.1354
     56  NH2       65.6160   32.2760   51.9220 N.pl3  69  ARG69       0.1354
     57  N         69.9890   22.7540   51.2620 N.3   107  THR107     -0.1203
     58  CA        68.6640   22.7270   51.8720 C.3   107  THR107      0.1994
     59  C         67.5900   23.2720   50.9380 C.2   107  THR107      0.2617
     60  O         67.8300   24.1920   50.1610 O.2   107  THR107     -0.2717
     61  CB        68.6190   23.5270   53.2040 C.3   107  THR107      0.1784
     62  OG1       68.9750   24.8880   52.9640 O.3   107  THR107     -0.2211
     63  CG2       69.5820   22.9310   54.2210 C.3   107  THR107      0.0376
     64  N         66.4010   22.6810   51.0140 N.am  108  ALA108     -0.1979
     65  CA        65.2810   23.1130   50.1980 C.3   108  ALA108      0.1597
     66  C         64.8720   24.5060   50.6860 C.2   108  ALA108      0.2287
     67  O         64.8540   24.7590   51.8930 O.2   108  ALA108     -0.2864
     68  CB        64.1020   22.1230   50.3480 C.3   108  ALA108      0.0319
     69  N         66.4840   27.3250   50.2470 N.3   110  SER110     -0.1202
     70  CA        67.6430   28.1310   50.6210 C.3   110  SER110      0.2020
     71  C         68.1240   29.0480   49.4980 C.2   110  SER110      0.2619
     72  O         67.8470   28.8100   48.3110 O.2   110  SER110     -0.2717
     73  CB        68.8040   27.2180   51.0250 C.3   110  SER110      0.2103
     74  OG        69.2200   26.4570   49.9040 O.3   110  SER110     -0.2182
     75  N         68.8470   30.1020   49.8660 N.am  111  THR111     -0.1952
     76  CA        69.3770   30.9900   48.8420 C.3   111  THR111      0.1897
     77  C         70.3510   30.1870   47.9770 C.2   111  THR111      0.2313
     78  O         70.5730   30.5190   46.8130 O.2   111  THR111     -0.2863
     79  CB        70.1010   32.2170   49.4520 C.3   111  THR111      0.1794
     80  OG1       71.1560   31.7780   50.3170 O.3   111  THR111     -0.2208
     81  CG2       69.1160   33.0780   50.2430 C.3   111  THR111      0.0378
     82  N         76.4680   25.9080   50.3840 N.3   146  PHE146     -0.1227
     83  CA        75.6750   26.4250   51.4770 C.3   146  PHE146      0.1736
     84  C         76.3890   27.6140   52.1120 C.2   146  PHE146      0.2595
     85  O         77.4580   28.0350   51.6530 O.2   146  PHE146     -0.2718
     86  CB        75.4530   25.2870   52.4790 C.3   146  PHE146      0.0547
     87  CG        74.2460   25.4580   53.3460 C.ar  146  PHE146     -0.0202
     88  CD1       73.0410   25.8750   52.8110 C.ar  146  PHE146     -0.0042
     89  CD2       74.3120   25.1690   54.7070 C.ar  146  PHE146     -0.0042
     90  CE1       71.8990   26.0040   53.6270 C.ar  146  PHE146     -0.0003
     91  CE2       73.1840   25.2920   55.5320 C.ar  146  PHE146     -0.0003
     92  CZ        71.9770   25.7100   54.9930 C.ar  146  PHE146     -0.0000
     93  N         75.7960   28.1660   53.1590 N.am  147  ASP147     -0.1974
     94  CA        76.3800   29.3190   53.8460 C.3   147  ASP147      0.1709
     95  C         77.7740   28.9900   54.4090 C.2   147  ASP147      0.2293
     96  O         77.9410   28.0370   55.1770 O.2   147  ASP147     -0.2864
     97  CB        75.4150   29.7680   54.9440 C.3   147  ASP147      0.1436
     98  CG        74.0500   30.1290   54.3850 C.2   147  ASP147      0.3671
     99  OD1       73.4280   29.2690   53.7410 O.co2 147  ASP147     -0.2456
    100  OD2       73.6010   31.2620   54.5800 O.co2 147  ASP147     -0.2456
    101  N         72.9610   38.5540   56.6860 N.3   175  TYR175     -0.1241
    102  CA        71.8130   38.0350   57.4250 C.3   175  TYR175      0.1605
    103  C         71.1710   39.1790   58.1660 C.2   175  TYR175      0.2264
    104  O         71.8590   40.1070   58.5950 O.2   175  TYR175     -0.2867
    105  CB        72.2160   37.0060   58.4750 C.3   175  TYR175      0.0534
    106  CG        72.9280   35.7980   57.9510 C.ar  175  TYR175     -0.0201
    107  CD1       72.6720   35.2980   56.6700 C.ar  175  TYR175     -0.0009
    108  CD2       73.8390   35.1210   58.7580 C.ar  175  TYR175     -0.0009
    109  CE1       73.3130   34.1470   56.2120 C.ar  175  TYR175      0.0417
    110  CE2       74.4790   33.9750   58.3130 C.ar  175  TYR175      0.0417
    111  CZ        74.2120   33.4950   57.0430 C.ar  175  TYR175      0.1957
    112  OH        74.8590   32.3570   56.6280 O.3   175  TYR175     -0.2866
@<TRIPOS>BOND
     1    78    77    2
     2    77    76    1
     3    72    71    2
     4    76    79    1
     5    76    75    1
     6    46    47    1
     7    79    81    1
     8    79    80    1
     9    71    75   am
    10    71    70    1
    11    74    73    1
    12    60    59    2
    13    65    68    1
    14    65    66    1
    15    65    64    1
    16    69    70    1
    17    47    48    1
    18    47    50    1
    19    82    83    1
    20    70    73    1
    21    66    67    2
    22    48    49    2
    23    59    64   am
    24    59    58    1
    25    51    50    1
    26    51    52    1
    27    57    58    1
    28    83    84    1
    29    83    86    1
    30    85    84    2
    31    53    52    1
    32    53    54    2
    33    58    61    1
    34    56    54    1
    35    84    93   am
    36    54    55    1
    37    86    87    1
    38    88    87   ar
    39    88    90   ar
    40    44    45    1
    41    44    41    1
    42    62    61    1
    43    93    94    1
    44    61    63    1
    45    87    89   ar
    46    43    42    2
    47    42    41    1
    48    90    92   ar
    49    99    98   ar
    50    94    95    1
    51    94    97    1
    52    41    40    1
    53    98   100   ar
    54    98    97    1
    55    95    96    2
    56    25    24    1
    57    89    91   ar
    58    24    26    1
    59    24    21    1
    60    92    91   ar
    61    40    34   am
    62    22    23    2
    63    22    21    1
    64    21    20    1
    65   109   107   ar
    66   109   111   ar
    67    34    35    2
    68    34    33    1
    69   112   111    1
    70   107   106   ar
    71   101   102    1
    72    38    36    1
    73   111   110   ar
    74    30    29    2
    75    33    36    1
    76    33    32    1
    77    11     9    1
    78    10     9    1
    79   102   103    1
    80   102   105    1
    81    36    37    1
    82     9     8    2
    83   106   105    1
    84   106   108   ar
    85   103   104    2
    86    29    32   am
    87    29    28    1
    88   110   108   ar
    89    19    17    1
    90    37    39    1
    91     8     7    1
    92    31    28    1
    93    28    27    1
    94     7     6    1
    95    17    16    1
    96     6     5    1
    97    16    18    1
    98    16    13    1
    99     5     2    1
   100    13    14    1
   101    13    12    1
   102     2     3    1
   103     2     1    1
   104    14    15    2
   105     3     4    2
