@<TRIPOS>MOLECULE
tmp/2pyzA00.pdb
 100 96 0 0 0
SMALL
GASTEIGER

@<TRIPOS>ATOM
      1  N        -20.7330   11.5350    9.8430 N.3    69  HIS69      -0.1241
      2  CA       -19.6420   12.3860    9.3270 C.3    69  HIS69       0.1621
      3  C        -19.1730   11.8990    7.9400 C.2    69  HIS69       0.2264
      4  O        -19.0570   12.6910    6.9980 O.2    69  HIS69      -0.2867
      5  CB       -18.4850   12.3560   10.3340 C.3    69  HIS69       0.0745
      6  CG       -17.3540   13.2880   10.0230 C.ar   69  HIS69       0.0817
      7  ND1      -16.2310   12.8860    9.3320 N.ar   69  HIS69      -0.2268
      8  CD2      -17.1430   14.5850   10.3630 C.ar   69  HIS69       0.1154
      9  CE1      -15.3790   13.8920    9.2560 C.ar   69  HIS69       0.1986
     10  NE2      -15.9100   14.9380    9.8690 N.ar   69  HIS69      -0.2212
     11  N        -10.9310   13.6380    5.8120 N.3   132  SER132     -0.1202
     12  CA       -11.4340   14.6640    6.7230 C.3   132  SER132      0.2020
     13  C        -11.2130   14.2320    8.1760 C.2   132  SER132      0.2619
     14  O        -12.1560   13.9420    8.9070 O.2   132  SER132     -0.2717
     15  CB       -12.9130   14.9340    6.4470 C.3   132  SER132      0.2103
     16  OG       -13.0640   15.5200    5.1730 O.3   132  SER132     -0.2182
     17  N         -9.9420   14.1630    8.5800 N.am  133  LEU133     -0.1965
     18  CA        -9.5880   13.7160    9.9060 C.3   133  LEU133      0.1728
     19  C         -8.1860   14.2140   10.2160 C.2   133  LEU133      0.2617
     20  O         -7.4640   14.7140    9.3470 O.2   133  LEU133     -0.2715
     21  CB        -9.6480   12.1770   10.0270 C.3   133  LEU133      0.0311
     22  CG        -8.8740   11.3350    8.9960 C.3   133  LEU133      0.0022
     23  CD1       -7.3440   11.3840    9.2440 C.3   133  LEU133      0.0001
     24  CD2       -9.3890    9.8960    8.9710 C.3   133  LEU133      0.0001
     25  N         -7.7960   14.0610   11.4650 N.am  134  GLY134     -0.1940
     26  CA        -6.4560   14.4660   11.8340 C.3   134  GLY134      0.2014
     27  C         -6.3140   14.4730   13.3270 C.2   134  GLY134      0.2639
     28  O         -7.2940   14.2790   14.0650 O.2   134  GLY134     -0.2714
     29  N         -5.0880   14.7000   13.7650 N.am  135  GLY135     -0.1954
     30  CA        -4.7930   14.7410   15.1800 C.3   135  GLY135      0.1869
     31  C         -3.4330   15.3820   15.3270 C.2   135  GLY135      0.2309
     32  O         -2.9530   16.0420   14.4050 O.2   135  GLY135     -0.2863
     33  N         -7.8430   17.4620    5.5680 N.3   158  ALA158     -0.1245
     34  CA        -8.3130   18.6580    6.2960 C.3   158  ALA158      0.1562
     35  C         -7.1750   19.3610    7.0310 C.2   158  ALA158      0.2260
     36  O         -6.3180   18.6990    7.6200 O.2   158  ALA158     -0.2867
     37  CB        -9.4360   18.2870    7.2690 C.3   158  ALA158      0.0290
     38  N         -7.5350   21.0460    9.7820 N.3   160  GLY160     -0.1210
     39  CA        -7.8340   20.9430   11.2110 C.3   160  GLY160      0.1956
     40  C         -8.6070   22.1480   11.7090 C.2   160  GLY160      0.2612
     41  O         -8.5860   23.2060   11.0680 O.2   160  GLY160     -0.2717
     42  N         -9.2730   21.9850   12.8580 N.am  161  ASN161     -0.1960
     43  CA       -10.2380   22.9700   13.3270 C.3   161  ASN161      0.1819
     44  C         -9.8180   23.6740   14.6220 C.2   161  ASN161      0.2621
     45  O        -10.6670   23.9740   15.4660 O.2   161  ASN161     -0.2715
     46  CB       -11.5940   22.3000   13.5490 C.3   161  ASN161      0.1195
     47  CG       -12.2260   21.7680   12.2640 C.2   161  ASN161      0.2630
     48  OD1      -11.8780   22.1560   11.1530 O.2   161  ASN161     -0.2716
     49  ND2      -13.1990   20.8820   12.4310 N.am  161  ASN161     -0.0877
     50  N         -8.5210   23.9110   14.7900 N.am  162  ASN162     -0.1972
     51  CA        -7.9940   24.4730   16.0630 C.3   162  ASN162      0.1688
     52  C         -7.6060   25.9630   15.9980 C.2   162  ASN162      0.2292
     53  O         -6.9520   26.4920   16.9360 O.2   162  ASN162     -0.2864
     54  CB        -6.7680   23.6610   16.5110 C.3   162  ASN162      0.1181
     55  CG        -6.9190   22.1580   16.2540 C.2   162  ASN162      0.2629
     56  OD1       -6.5620   21.6500   15.1770 O.2   162  ASN162     -0.2716
     57  ND2       -7.4710   21.4510   17.2300 N.am  162  ASN162     -0.0877
     58  N         -0.1400   19.4180   13.2280 N.3   169  TYR169     -0.1241
     59  CA        -1.2110   18.4350   13.0420 C.3   169  TYR169      0.1605
     60  C         -0.9250   17.5120   11.8730 C.2   169  TYR169      0.2264
     61  O         -0.3060   17.9300   10.8890 O.2   169  TYR169     -0.2867
     62  CB        -2.5500   19.1500   12.8480 C.3   169  TYR169      0.0534
     63  CG        -2.9070   19.9990   14.0450 C.ar  169  TYR169     -0.0201
     64  CD1       -2.5300   21.3450   14.1140 C.ar  169  TYR169     -0.0009
     65  CD2       -3.5640   19.4420   15.1350 C.ar  169  TYR169     -0.0009
     66  CE1       -2.8460   22.1300   15.2500 C.ar  169  TYR169      0.0417
     67  CE2       -3.8790   20.2090   16.2640 C.ar  169  TYR169      0.0417
     68  CZ        -3.5210   21.5340   16.3160 C.ar  169  TYR169      0.1957
     69  OH        -3.8660   22.2550   17.4450 O.3   169  TYR169     -0.2866
     70  N        -20.2820   22.2340    9.9930 N.3   221  SER221     -0.1202
     71  CA       -19.1300   23.0810    9.6610 C.3   221  SER221      0.2020
     72  C        -17.8230   22.3990   10.0380 C.2   221  SER221      0.2619
     73  O        -17.7520   21.6690   11.0270 O.2   221  SER221     -0.2717
     74  CB       -19.2170   24.4320   10.3910 C.3   221  SER221      0.2103
     75  OG       -20.4140   25.1540   10.0840 O.3   221  SER221     -0.2182
     76  N        -16.7850   22.6560    9.2590 N.am  222  GLY222     -0.1942
     77  CA       -15.4440   22.2070    9.6200 C.3   222  GLY222      0.2014
     78  C        -14.5410   22.1830    8.4150 C.2   222  GLY222      0.2640
     79  O        -15.0190   22.2750    7.2720 O.2   222  GLY222     -0.2714
     80  N        -13.2330   22.0410    8.6520 N.am  223  THR223     -0.1936
     81  CA       -12.3030   21.8140    7.5470 C.3   223  THR223      0.2028
     82  C        -12.6030   20.4240    6.9590 C.2   223  THR223      0.2643
     83  O        -12.2140   20.1410    5.8200 O.2   223  THR223     -0.2714
     84  CB       -10.7970   21.9440    7.9460 C.3   223  THR223      0.1808
     85  OG1      -10.5010   21.0370    9.0180 O.3   223  THR223     -0.2208
     86  CG2      -10.4430   23.4210    8.3600 C.3   223  THR223      0.0379
     87  N        -13.3270   19.5980    7.7280 N.am  224  SER224     -0.1935
     88  CA       -13.8450   18.2960    7.2700 C.3   224  SER224      0.2055
     89  C        -14.7930   18.4470    6.0780 C.2   224  SER224      0.2642
     90  O        -14.8930   17.5390    5.2560 O.2   224  SER224     -0.2714
     91  CB       -14.6120   17.5970    8.4030 C.3   224  SER224      0.2130
     92  OG       -13.7020   16.9460    9.2850 O.3   224  SER224     -0.2179
     93  N        -15.4870   19.5850    6.0060 N.am  225  MET225     -0.1976
     94  CA       -16.4770   19.8610    4.9420 C.3   225  MET225      0.1605
     95  C        -15.7770   20.5400    3.7400 C.2   225  MET225      0.2287
     96  O        -16.2260   20.4150    2.5950 O.2   225  MET225     -0.2864
     97  CB       -17.6170   20.7740    5.4570 C.3   225  MET225      0.0413
     98  CG       -18.6740   20.1310    6.3980 C.3   225  MET225      0.0598
     99  SD       -17.9590   19.5170    7.9530 S.3   225  MET225     -0.1393
    100  CE       -17.9400   17.7480    7.6560 C.3   225  MET225      0.0692
@<TRIPOS>BOND
     1    96    95    2
     2    95    94    1
     3    94    97    1
     4    94    93    1
     5    16    15    1
     6    90    89    2
     7    97    98    1
     8    33    34    1
     9    11    12    1
    10    83    82    2
    11    93    89   am
    12    89    88    1
    13    34    35    1
    14    34    37    1
    15    98    99    1
    16    15    12    1
    17    12    13    1
    18    82    81    1
    19    82    87   am
    20     4     3    2
    21    35    36    2
    22    88    87    1
    23    88    91    1
    24    79    78    2
    25    81    84    1
    26    81    80    1
    27   100    99    1
    28     3     2    1
    29    84    86    1
    30    84    85    1
    31    13    17   am
    32    13    14    2
    33    91    92    1
    34    78    80   am
    35    78    77    1
    36    17    18    1
    37    24    22    1
    38    22    23    1
    39    22    21    1
    40     9     7   ar
    41     9    10   ar
    42    76    77    1
    43    76    72   am
    44     2     1    1
    45     2     5    1
    46     7     6   ar
    47    20    19    2
    48    71    70    1
    49    71    72    1
    50    71    74    1
    51    38    39    1
    52    10     8   ar
    53    18    21    1
    54    18    19    1
    55     6     5    1
    56     6     8   ar
    57    72    73    2
    58    75    74    1
    59    19    25   am
    60    61    60    2
    61    41    40    2
    62    48    47    2
    63    39    40    1
    64    25    26    1
    65    40    42   am
    66    26    27    1
    67    60    59    1
    68    47    49   am
    69    47    46    1
    70    62    59    1
    71    62    63    1
    72    42    43    1
    73    59    58    1
    74    27    29   am
    75    27    28    2
    76    43    46    1
    77    43    44    1
    78    29    30    1
    79    63    64   ar
    80    63    65   ar
    81    64    66   ar
    82    32    31    2
    83    44    50   am
    84    44    45    2
    85    50    51    1
    86    65    67   ar
    87    56    55    2
    88    30    31    1
    89    66    68   ar
    90    52    51    1
    91    52    53    2
    92    51    54    1
    93    55    54    1
    94    55    57   am
    95    67    68   ar
    96    68    69    1
