@<TRIPOS>MOLECULE
tmp/2pz8A00.pdb
 219 209 0 0 0
SMALL
GASTEIGER

@<TRIPOS>ATOM
      1  N         36.9310  -13.7610  -20.0890 N.3    44  LEU44      -0.1231
      2  CA        36.7040  -14.0390  -18.6770 C.3    44  LEU44       0.1693
      3  C         36.9300  -12.8350  -17.7790 C.2    44  LEU44       0.2593
      4  O         37.8900  -12.0800  -17.9530 O.2    44  LEU44      -0.2718
      5  CB        37.6110  -15.1850  -18.2010 C.3    44  LEU44       0.0284
      6  CG        37.5670  -15.5180  -16.6990 C.3    44  LEU44       0.0019
      7  CD1       36.1770  -16.0090  -16.3230 C.3    44  LEU44       0.0001
      8  CD2       38.6180  -16.5820  -16.3600 C.3    44  LEU44       0.0001
      9  N         36.0320  -12.6610  -16.8150 N.am   45  GLY45      -0.1942
     10  CA        36.1700  -11.5700  -15.8730 C.3    45  GLY45       0.2014
     11  C         37.2450  -11.9420  -14.8690 C.2    45  GLY45       0.2639
     12  O         37.2150  -13.0290  -14.2960 O.2    45  GLY45      -0.2714
     13  N         38.2080  -11.0480  -14.6740 N.am   46  ILE46      -0.1963
     14  CA        39.3000  -11.2690  -13.7280 C.3    46  ILE46       0.1727
     15  C         39.0600  -10.3480  -12.5270 C.2    46  ILE46       0.2616
     16  O         39.1130   -9.1230  -12.6520 O.2    46  ILE46      -0.2715
     17  CB        40.6610  -10.9410  -14.3840 C.3    46  ILE46       0.0290
     18  CG1       40.8660  -11.8320  -15.6090 C.3    46  ILE46       0.0022
     19  CG2       41.7990  -11.1390  -13.3840 C.3    46  ILE46       0.0023
     20  CD1       40.7300  -13.3240  -15.3140 C.3    46  ILE46       0.0001
     21  N         38.7920  -10.9440  -11.3700 N.am   47  SER47      -0.1950
     22  CA        38.4890  -10.1830  -10.1580 C.3    47  SER47       0.1924
     23  C         39.6420   -9.9760   -9.1910 C.2    47  SER47       0.2314
     24  O         39.5600   -9.1300   -8.3050 O.2    47  SER47      -0.2863
     25  CB        37.3640  -10.8720   -9.3830 C.3    47  SER47       0.2116
     26  OG        37.8200  -12.1100   -8.8620 O.3    47  SER47      -0.2180
     27  N         40.5600  -12.5000   -7.5450 N.3    49  GLY49      -0.1210
     28  CA        40.2920  -13.6350   -6.6790 C.3    49  GLY49       0.1956
     29  C         40.8710  -14.9200   -7.2480 C.2    49  GLY49       0.2612
     30  O         41.1220  -15.0200   -8.4490 O.2    49  GLY49      -0.2717
     31  N         41.0580  -15.9080   -6.3800 N.am   50  GLN50      -0.1965
     32  CA        41.6320  -17.2040   -6.7430 C.3    50  GLN50       0.1733
     33  C         41.0690  -17.9340   -7.9700 C.2    50  GLN50       0.2616
     34  O         41.8210  -18.3440   -8.8590 O.2    50  GLN50      -0.2715
     35  CB        41.5450  -18.1440   -5.5300 C.3    50  GLN50       0.0408
     36  CG        42.1010  -19.5420   -5.7700 C.3    50  GLN50       0.0908
     37  CD        41.8920  -20.4710   -4.5810 C.2    50  GLN50       0.2608
     38  OE1       42.2120  -20.1230   -3.4450 O.2    50  GLN50      -0.2717
     39  NE2       41.3600  -21.6600   -4.8420 N.am   50  GLN50      -0.0878
     40  N         39.7520  -18.1010   -8.0210 N.am   51  ASP51      -0.1957
     41  CA        39.1350  -18.8420   -9.1170 C.3    51  ASP51       0.1840
     42  C         39.3670  -18.2660  -10.5170 C.2    51  ASP51       0.2622
     43  O         39.7310  -19.0070  -11.4360 O.2    51  ASP51      -0.2715
     44  CB        37.6350  -19.0240   -8.8470 C.3    51  ASP51       0.1450
     45  CG        37.3530  -19.6600   -7.4820 C.2    51  ASP51       0.3671
     46  OD1       38.2320  -20.3840   -6.9500 O.co2  51  ASP51      -0.2456
     47  OD2       36.2410  -19.4440   -6.9420 O.co2  51  ASP51      -0.2456
     48  N         39.1560  -16.9630  -10.6920 N.am   52  SER52      -0.1950
     49  CA        39.3630  -16.3380  -11.9960 C.3    52  SER52       0.1924
     50  C         40.8500  -16.2340  -12.3140 C.2    52  SER52       0.2314
     51  O         41.2420  -16.2600  -13.4780 O.2    52  SER52      -0.2863
     52  CB        38.6910  -14.9560  -12.0610 C.3    52  SER52       0.2116
     53  OG        38.9930  -14.1580  -10.9330 O.3    52  SER52      -0.2180
     54  N         38.9460   -9.5260  -18.6790 N.3    78  VAL78      -0.1231
     55  CA        38.1950   -8.3000  -18.4500 C.3    78  VAL78       0.1692
     56  C         37.9680   -7.9190  -16.9910 C.2    78  VAL78       0.2592
     57  O         37.4760   -8.7170  -16.1930 O.2    78  VAL78      -0.2718
     58  CB        36.8230   -8.3580  -19.1740 C.3    78  VAL78       0.0266
     59  CG1       36.0530   -9.5750  -18.7280 C.3    78  VAL78       0.0020
     60  CG2       36.0210   -7.0900  -18.8890 C.3    78  VAL78       0.0020
     61  N         38.3580   -6.6930  -16.6510 N.am   79  ARG79      -0.1966
     62  CA        38.1800   -6.1500  -15.3030 C.3    79  ARG79       0.1729
     63  C         36.7430   -5.6380  -15.2670 C.2    79  ARG79       0.2616
     64  O         36.3500   -4.8630  -16.1400 O.2    79  ARG79      -0.2715
     65  CB        39.1410   -4.9790  -15.0720 C.3    79  ARG79       0.0348
     66  CG        40.5970   -5.3680  -14.8210 C.3    79  ARG79       0.0492
     67  CD        40.8860   -5.4030  -13.3230 C.3    79  ARG79       0.2205
     68  NE        39.9200   -6.2500  -12.6470 N.pl3  79  ARG79      -0.0865
     69  CZ        39.0670   -5.8430  -11.7140 C.cat  79  ARG79       0.5346
     70  NH1       39.0450   -4.5780  -11.3110 N.pl3  79  ARG79       0.1354
     71  NH2       38.2140   -6.7130  -11.2000 N.pl3  79  ARG79       0.1354
     72  N         35.9650   -6.0630  -14.2760 N.am   80  LEU80      -0.1964
     73  CA        34.5580   -5.6430  -14.1670 C.3    80  LEU80       0.1713
     74  C         34.2190   -5.0550  -12.7990 C.2    80  LEU80       0.2458
     75  O         33.3500   -5.5610  -12.0780 O.2    80  LEU80      -0.2730
     76  CB        33.6310   -6.8340  -14.4370 C.3    80  LEU80       0.0310
     77  CG        33.7840   -7.5160  -15.7970 C.3    80  LEU80       0.0022
     78  CD1       33.0690   -8.8700  -15.7820 C.3    80  LEU80       0.0001
     79  CD2       33.2290   -6.6110  -16.8780 C.3    80  LEU80       0.0001
     80  N         34.8900   -3.9660  -12.4220 N.am   81  PRO81      -0.2727
     81  CA        34.5830   -3.3880  -11.1160 C.3    81  PRO81       0.1402
     82  C         33.2630   -2.6390  -11.1170 C.2    81  PRO81       0.2269
     83  O         32.7590   -2.2390  -12.1700 O.2    81  PRO81      -0.2865
     84  CB        35.7430   -2.4300  -10.8930 C.3    81  PRO81       0.0296
     85  CG        35.9480   -1.8800  -12.2790 C.3    81  PRO81       0.0237
     86  CD        35.8780   -3.1420  -13.1440 C.3    81  PRO81       0.0939
     87  N         36.9190   -0.6170   -7.3330 N.3    85  GLN85      -0.1245
     88  CA        36.9950   -1.8950   -6.6370 C.3    85  GLN85       0.1566
     89  C         37.9910   -1.8400   -5.4800 C.2    85  GLN85       0.2260
     90  O         39.1480   -1.4500   -5.6520 O.2    85  GLN85      -0.2867
     91  CB        37.3760   -3.0190   -7.6080 C.3    85  GLN85       0.0367
     92  CG        37.1550   -4.4210   -7.0350 C.3    85  GLN85       0.0905
     93  CD        37.4450   -5.5190   -8.0440 C.2    85  GLN85       0.2608
     94  OE1       37.0840   -5.4040   -9.2150 O.2    85  GLN85      -0.2717
     95  NE2       38.0880   -6.5950   -7.5910 N.am   85  GLN85      -0.0878
     96  N         27.6180   -8.5590  -14.9810 N.3   140  ARG140     -0.1245
     97  CA        28.9550   -9.0110  -15.3450 C.3   140  ARG140      0.1563
     98  C         28.8300  -10.1030  -16.4120 C.2   140  ARG140      0.2260
     99  O         29.6400  -10.1710  -17.3380 O.2   140  ARG140     -0.2867
    100  CB        29.7220   -9.5320  -14.1210 C.3   140  ARG140      0.0307
    101  CG        30.1640   -8.4230  -13.1740 C.3   140  ARG140      0.0489
    102  CD        31.3030   -8.8500  -12.2420 C.3   140  ARG140      0.2205
    103  NE        31.7600   -7.7080  -11.4520 N.pl3 140  ARG140     -0.0865
    104  CZ        31.2960   -7.3970  -10.2450 C.cat 140  ARG140      0.5346
    105  NH1       30.3730   -8.1560   -9.6710 N.pl3 140  ARG140      0.1354
    106  NH2       31.7170   -6.2930   -9.6350 N.pl3 140  ARG140      0.1354
    107  N         30.3310   -9.9510  -20.3260 N.3   144  GLN144     -0.1245
    108  CA        31.1840  -10.9940  -20.8980 C.3   144  GLN144      0.1566
    109  C         30.5690  -11.6300  -22.1410 C.2   144  GLN144      0.2260
    110  O         31.2790  -11.9660  -23.0910 O.2   144  GLN144     -0.2867
    111  CB        31.4970  -12.0640  -19.8440 C.3   144  GLN144      0.0367
    112  CG        32.2910  -11.5010  -18.6740 C.3   144  GLN144      0.0905
    113  CD        32.4660  -12.4760  -17.5350 C.2   144  GLN144      0.2608
    114  OE1       33.2860  -13.3970  -17.6040 O.2   144  GLN144     -0.2717
    115  NE2       31.6900  -12.2830  -16.4740 N.am  144  GLN144     -0.0878
    116  N         33.8950  -20.0310  -13.7500 N.3   158  THR158     -0.1218
    117  CA        34.8650  -20.4340  -12.7380 C.3   158  THR158      0.1862
    118  C         34.3300  -21.3720  -11.6750 C.2   158  THR158      0.2287
    119  O         34.9210  -21.4920  -10.5960 O.2   158  THR158     -0.2866
    120  CB        35.4540  -19.2090  -12.0300 C.3   158  THR158      0.1770
    121  OG1       34.4020  -18.4850  -11.3830 O.3   158  THR158     -0.2211
    122  CG2       36.1480  -18.3000  -13.0310 C.3   158  THR158      0.0375
    123  N         32.4040  -24.5300   -4.6160 N.3   163  GLU163     -0.1245
    124  CA        31.3720  -23.5250   -4.8340 C.3   163  GLU163      0.1567
    125  C         30.0720  -24.2080   -5.2420 C.2   163  GLU163      0.2260
    126  O         28.9830  -23.7920   -4.8430 O.2   163  GLU163     -0.2867
    127  CB        31.8270  -22.5600   -5.9360 C.3   163  GLU163      0.0388
    128  CG        30.7480  -21.6380   -6.4710 C.3   163  GLU163      0.1160
    129  CD        31.2290  -20.8060   -7.6490 C.2   163  GLU163      0.3649
    130  OE1       31.9740  -19.8190   -7.4310 O.co2 163  GLU163     -0.2457
    131  OE2       30.8620  -21.1510   -8.7970 O.co2 163  GLU163     -0.2457
    132  N         26.9700  -21.6940   -4.1770 N.3   168  PHE168     -0.1241
    133  CA        27.4490  -20.3500   -3.8770 C.3   168  PHE168      0.1605
    134  C         27.8420  -19.5740   -5.1230 C.2   168  PHE168      0.2264
    135  O         29.0270  -19.3640   -5.3900 O.2   168  PHE168     -0.2867
    136  CB        28.6420  -20.4270   -2.9200 C.3   168  PHE168      0.0534
    137  CG        29.0080  -19.1130   -2.3010 C.ar  168  PHE168     -0.0203
    138  CD1       28.1350  -18.4780   -1.4260 C.ar  168  PHE168     -0.0042
    139  CD2       30.2230  -18.5030   -2.6000 C.ar  168  PHE168     -0.0042
    140  CE1       28.4680  -17.2450   -0.8510 C.ar  168  PHE168     -0.0003
    141  CE2       30.5640  -17.2740   -2.0340 C.ar  168  PHE168     -0.0003
    142  CZ        29.6850  -16.6440   -1.1570 C.ar  168  PHE168     -0.0000
    143  N         27.3700  -15.2620  -12.3340 N.3   174  ASP174     -0.1239
    144  CA        28.6520  -15.9210  -12.5640 C.3   174  ASP174      0.1674
    145  C         28.3880  -17.4020  -12.8530 C.2   174  ASP174      0.2266
    146  O         29.2690  -18.1320  -13.3160 O.2   174  ASP174     -0.2867
    147  CB        29.5830  -15.7570  -11.3560 C.3   174  ASP174      0.1410
    148  CG        28.9520  -16.2100  -10.0570 C.2   174  ASP174      0.3668
    149  OD1       27.8500  -15.7280   -9.7120 O.co2 174  ASP174     -0.2456
    150  OD2       29.5700  -17.0490   -9.3690 O.co2 174  ASP174     -0.2456
    151  N         38.6990  -26.1580   -3.0700 N.3   187  LYS187     -0.1245
    152  CA        39.3790  -24.8760   -2.9560 C.3   187  LYS187      0.1561
    153  C         40.8870  -25.0260   -2.7860 C.2   187  LYS187      0.2260
    154  O         41.6670  -24.3310   -3.4460 O.2   187  LYS187     -0.2867
    155  CB        38.7890  -24.0790   -1.7940 C.3   187  LYS187      0.0271
    156  CG        39.0130  -22.5800   -1.8820 C.3   187  LYS187      0.0035
    157  CD        38.2250  -21.9700   -3.0280 C.3   187  LYS187      0.0206
    158  CE        38.2960  -20.4470   -3.0000 C.3   187  LYS187      0.1093
    159  NZ        37.5570  -19.8230   -4.1360 N.3   187  LYS187     -0.1314
    160  N         44.7470  -15.1150   -0.5500 N.3   206  LYS206     -0.1231
    161  CA        43.7470  -14.0650   -0.3980 C.3   206  LYS206      0.1693
    162  C         42.4200  -14.6790    0.0400 C.2   206  LYS206      0.2592
    163  O         42.0680  -15.7840   -0.3750 O.2   206  LYS206     -0.2718
    164  CB        43.5640  -13.3180   -1.7190 C.3   206  LYS206      0.0285
    165  CG        42.4460  -12.2930   -1.6940 C.3   206  LYS206      0.0035
    166  CD        42.3770  -11.5070   -2.9940 C.3   206  LYS206      0.0206
    167  CE        41.3760  -10.3740   -2.8610 C.3   206  LYS206      0.1093
    168  NZ        41.4920   -9.4350   -3.9920 N.3   206  LYS206     -0.1314
    169  N         41.6830  -13.9600    0.8780 N.am  207  MET207     -0.1966
    170  CA        40.4090  -14.4530    1.3790 C.3   207  MET207      0.1721
    171  C         39.3230  -14.4540    0.3060 C.2   207  MET207      0.2458
    172  O         39.0730  -13.4370   -0.3420 O.2   207  MET207     -0.2730
    173  CB        39.9580  -13.6040    2.5650 C.3   207  MET207      0.0427
    174  CG        38.6550  -14.0560    3.2030 C.3   207  MET207      0.0599
    175  SD        38.2120  -12.9520    4.5600 S.3   207  MET207     -0.1393
    176  CE        37.5140  -11.5690    3.6330 C.3   207  MET207      0.0692
    177  N         38.6670  -15.6100    0.1020 N.am  208  PRO208     -0.2716
    178  CA        37.6020  -15.7390   -0.9000 C.3   208  PRO208      0.1536
    179  C         36.4240  -14.8180   -0.5920 C.2   208  PRO208      0.2599
    180  O         35.9450  -14.7770    0.5450 O.2   208  PRO208     -0.2715
    181  CB        37.2180  -17.2160   -0.8080 C.3   208  PRO208      0.0310
    182  CG        38.5170  -17.8810   -0.3880 C.3   208  PRO208      0.0237
    183  CD        38.9980  -16.9240    0.6870 C.3   208  PRO208      0.0939
    184  N         35.9610  -14.0840   -1.5980 N.am  209  THR209     -0.1937
    185  CA        34.8370  -13.1730   -1.4190 C.3   209  THR209      0.2028
    186  C         34.1540  -12.8660   -2.7460 C.2   209  THR209      0.2642
    187  O         34.8220  -12.6550   -3.7640 O.2   209  THR209     -0.2714
    188  CB        35.2840  -11.8290   -0.7930 C.3   209  THR209      0.1808
    189  OG1       34.1590  -10.9420   -0.6960 O.3   209  THR209     -0.2208
    190  CG2       36.3560  -11.1750   -1.6480 C.3   209  THR209      0.0379
    191  N         32.8240  -12.8430   -2.7320 N.am  210  ALA210     -0.1963
    192  CA        32.0650  -12.5360   -3.9320 C.3   210  ALA210      0.1728
    193  C         32.0630  -11.0230   -4.1240 C.2   210  ALA210      0.2616
    194  O         31.8760  -10.5320   -5.2330 O.2   210  ALA210     -0.2715
    195  CB        30.6510  -13.0510   -3.7950 C.3   210  ALA210      0.0334
    196  N         32.2740  -10.3020   -3.0250 N.am  211  ASP211     -0.1957
    197  CA        32.3210   -8.8360   -3.0040 C.3   211  ASP211      0.1840
    198  C         31.2240   -8.1650   -3.8340 C.2   211  ASP211      0.2621
    199  O         31.5060   -7.3720   -4.7380 O.2   211  ASP211     -0.2715
    200  CB        33.7060   -8.3570   -3.4670 C.3   211  ASP211      0.1450
    201  CG        33.9000   -6.8530   -3.3010 C.2   211  ASP211      0.3671
    202  OD1       33.3630   -6.2780   -2.3240 O.co2 211  ASP211     -0.2456
    203  OD2       34.6070   -6.2470   -4.1410 O.co2 211  ASP211     -0.2456
    204  N         29.9720   -8.4670   -3.5020 N.am  212  LEU212     -0.1977
    205  CA        28.8280   -7.9030   -4.2170 C.3   212  LEU212      0.1596
    206  C         28.0270   -6.8920   -3.3950 C.2   212  LEU212      0.2287
    207  O         27.2520   -6.1120   -3.9510 O.2   212  LEU212     -0.2864
    208  CB        27.8740   -9.0240   -4.6460 C.3   212  LEU212      0.0297
    209  CG        28.4120  -10.1480   -5.5320 C.3   212  LEU212      0.0022
    210  CD1       27.3290  -11.2170   -5.7000 C.3   212  LEU212      0.0001
    211  CD2       28.8320   -9.5900   -6.8810 C.3   212  LEU212      0.0001
    212  N         33.5250  -15.3380    2.1190 N.3   221  ASP221     -0.1239
    213  CA        32.5990  -16.4090    1.7500 C.3   221  ASP221      0.1674
    214  C         32.1930  -17.1760    3.0010 C.2   221  ASP221      0.2266
    215  O         31.0210  -17.4930    3.1950 O.2   221  ASP221     -0.2867
    216  CB        33.2700  -17.4090    0.8050 C.3   221  ASP221      0.1410
    217  CG        33.3900  -16.9040   -0.6140 C.2   221  ASP221      0.3668
    218  OD1       33.1520  -15.7050   -0.8650 O.co2 221  ASP221     -0.2456
    219  OD2       33.7390  -17.7270   -1.4860 O.co2 221  ASP221     -0.2456
@<TRIPOS>BOND
     1   110   109    2
     2   109   108    1
     3   108   107    1
     4   108   111    1
     5     1     2    1
     6   111   112    1
     7    58    60    1
     8    58    59    1
     9    58    55    1
    10    54    55    1
    11     2     5    1
    12     2     3    1
    13   112   113    1
    14    55    56    1
    15     5     6    1
    16     4     3    2
    17     3     9   am
    18   114   113    2
    19   113   115   am
    20    99    98    2
    21    56    61   am
    22    56    57    2
    23    79    77    1
    24     9    10    1
    25     6     8    1
    26     6     7    1
    27    61    62    1
    28    98    97    1
    29    64    63    2
    30    10    11    1
    31    77    78    1
    32    77    76    1
    33    18    20    1
    34    18    17    1
    35    97    96    1
    36    97   100    1
    37    62    63    1
    38    62    65    1
    39    63    72   am
    40    65    66    1
    41    11    13   am
    42    11    12    2
    43    66    67    1
    44    13    14    1
    45    76    73    1
    46    17    14    1
    47    17    19    1
    48    72    73    1
    49    73    74    1
    50   100   101    1
    51   116   117    1
    52    14    15    1
    53    51    50    2
    54    67    68    1
    55   146   145    2
    56   101   102    1
    57    86    80    1
    58    86    85    1
    59   122   120    1
    60   145   144    1
    61    74    80   am
    62    74    75    2
    63   117   120    1
    64   117   118    1
    65    16    15    2
    66    68    69    2
    67   144   143    1
    68   144   147    1
    69    15    21   am
    70    80    81    1
    71    50    49    1
    72    85    84    1
    73   102   103    1
    74    83    82    2
    75    52    49    1
    76    52    53    1
    77   120   121    1
    78    49    48    1
    79    69    70    1
    80    69    71    1
    81   118   119    2
    82   103   104    2
    83    43    42    2
    84    21    22    1
    85   147   148    1
    86    82    81    1
    87    81    84    1
    88    48    42   am
    89    42    41    1
    90   104   105    1
    91   104   106    1
    92    22    25    1
    93    22    23    1
    94   148   149   ar
    95   148   150   ar
    96    25    26    1
    97    94    93    2
    98    23    24    2
    99    41    44    1
   100    41    40    1
   101    34    33    2
   102    44    45    1
   103   131   129   ar
   104    30    29    2
   105    93    95   am
   106    93    92    1
   107    40    33   am
   108    33    32    1
   109   129   130   ar
   110   129   128    1
   111    91    92    1
   112    91    88    1
   113    27    28    1
   114    45    46   ar
   115    45    47   ar
   116    87    88    1
   117    29    28    1
   118    29    31   am
   119   211   209    1
   120    32    31    1
   121    32    35    1
   122    88    89    1
   123   128   127    1
   124   127   124    1
   125    36    35    1
   126    36    37    1
   127   210   209    1
   128    90    89    2
   129   209   208    1
   130   135   134    2
   131   125   126    2
   132   125   124    1
   133   194   193    2
   134   134   133    1
   135    39    37   am
   136   124   123    1
   137   199   198    2
   138   208   205    1
   139    37    38    2
   140   205   204    1
   141   205   206    1
   142   132   133    1
   143   203   201   ar
   144   159   158    1
   145   193   192    1
   146   193   196   am
   147   168   167    1
   148   207   206    2
   149   192   195    1
   150   192   191    1
   151   133   136    1
   152   198   204   am
   153   198   197    1
   154   187   186    2
   155   200   201    1
   156   200   197    1
   157   154   153    2
   158   201   202   ar
   159   151   152    1
   160   157   158    1
   161   157   156    1
   162   196   197    1
   163   166   167    1
   164   166   165    1
   165   152   153    1
   166   152   155    1
   167   136   137    1
   168   186   191   am
   169   186   185    1
   170   139   137   ar
   171   139   141   ar
   172   137   138   ar
   173   141   142   ar
   174   156   155    1
   175   164   165    1
   176   164   161    1
   177   190   188    1
   178   184   185    1
   179   184   179   am
   180   219   217   ar
   181   138   140   ar
   182   185   188    1
   183   142   140   ar
   184   178   181    1
   185   178   179    1
   186   178   177    1
   187   218   217   ar
   188   181   182    1
   189   188   189    1
   190   217   216    1
   191   179   180    2
   192   160   161    1
   193   161   162    1
   194   182   183    1
   195   163   162    2
   196   172   171    2
   197   162   169   am
   198   177   171   am
   199   177   183    1
   200   171   170    1
   201   216   213    1
   202   169   170    1
   203   170   173    1
   204   213   212    1
   205   213   214    1
   206   173   174    1
   207   214   215    2
   208   174   175    1
   209   176   175    1
