@<TRIPOS>MOLECULE
tmp/2pzaA00.pdb
 184 175 0 0 0
SMALL
GASTEIGER

@<TRIPOS>ATOM
      1  N         36.9080  -13.9200  -20.2050 N.3    44  LEU44      -0.1231
      2  CA        36.6600  -14.1880  -18.7970 C.3    44  LEU44       0.1693
      3  C         36.8880  -12.9550  -17.9420 C.2    44  LEU44       0.2593
      4  O         37.7970  -12.1670  -18.1940 O.2    44  LEU44      -0.2718
      5  CB        37.5670  -15.3070  -18.2880 C.3    44  LEU44       0.0284
      6  CG        37.5770  -15.4750  -16.7620 C.3    44  LEU44       0.0019
      7  CD1       36.1600  -15.7200  -16.2730 C.3    44  LEU44       0.0001
      8  CD2       38.4950  -16.6150  -16.3590 C.3    44  LEU44       0.0001
      9  N         36.0520  -12.7980  -16.9240 N.am   45  GLY45      -0.1942
     10  CA        36.1930  -11.6710  -16.0330 C.3    45  GLY45       0.2014
     11  C         37.1680  -12.0340  -14.9320 C.2    45  GLY45       0.2639
     12  O         36.9980  -13.0480  -14.2660 O.2    45  GLY45      -0.2714
     13  N         38.2030  -11.2160  -14.7540 N.am   46  ILE46      -0.1963
     14  CA        39.2110  -11.4540  -13.7180 C.3    46  ILE46       0.1727
     15  C         38.8950  -10.5510  -12.5210 C.2    46  ILE46       0.2616
     16  O         38.8650   -9.3230  -12.6520 O.2    46  ILE46      -0.2715
     17  CB        40.6290  -11.1380  -14.2530 C.3    46  ILE46       0.0290
     18  CG1       40.8270  -11.8000  -15.6200 C.3    46  ILE46       0.0022
     19  CG2       41.6880  -11.6610  -13.2850 C.3    46  ILE46       0.0023
     20  CD1       40.5970  -13.3000  -15.6210 C.3    46  ILE46       0.0001
     21  N         38.6580  -11.1610  -11.3660 N.am   47  SER47      -0.1950
     22  CA        38.3080  -10.4200  -10.1550 C.3    47  SER47       0.1924
     23  C         39.4480  -10.1700   -9.1840 C.2    47  SER47       0.2314
     24  O         39.3190   -9.3570   -8.2680 O.2    47  SER47      -0.2863
     25  CB        37.2230  -11.1650   -9.3800 C.3    47  SER47       0.2116
     26  OG        37.7600  -12.3280   -8.7740 O.3    47  SER47      -0.2180
     27  N         39.8730  -18.1800   -8.0670 N.3    51  ASP51      -0.1225
     28  CA        39.2650  -18.9260   -9.1690 C.3    51  ASP51       0.1805
     29  C         39.3910  -18.3220  -10.5780 C.2    51  ASP51       0.2598
     30  O         39.7690  -19.0250  -11.5190 O.2    51  ASP51      -0.2718
     31  CB        37.7920  -19.2100   -8.8500 C.3    51  ASP51       0.1424
     32  CG        37.5950  -19.8440   -7.4660 C.2    51  ASP51       0.3668
     33  OD1       38.3690  -20.7620   -7.0830 O.co2  51  ASP51      -0.2456
     34  OD2       36.6430  -19.4260   -6.7690 O.co2  51  ASP51      -0.2456
     35  N         39.0660  -17.0380  -10.7320 N.am   52  SER52      -0.1952
     36  CA        39.1770  -16.3850  -12.0370 C.3    52  SER52       0.1924
     37  C         40.6440  -16.2800  -12.4140 C.2    52  SER52       0.2314
     38  O         40.9970  -16.4110  -13.5830 O.2    52  SER52      -0.2863
     39  CB        38.5230  -14.9950  -12.0280 C.3    52  SER52       0.2116
     40  OG        39.0160  -14.1790  -10.9890 O.3    52  SER52      -0.2180
     41  N         38.8320   -9.5450  -18.7020 N.3    78  VAL78      -0.1231
     42  CA        38.0750   -8.3200  -18.4790 C.3    78  VAL78       0.1692
     43  C         37.8130   -7.9730  -17.0210 C.2    78  VAL78       0.2592
     44  O         37.2660   -8.7760  -16.2730 O.2    78  VAL78      -0.2718
     45  CB        36.7310   -8.3700  -19.2640 C.3    78  VAL78       0.0266
     46  CG1       36.0760   -9.7080  -19.0760 C.3    78  VAL78       0.0020
     47  CG2       35.8010   -7.2550  -18.8070 C.3    78  VAL78       0.0020
     48  N         38.2290   -6.7740  -16.6230 N.am   79  ARG79      -0.1966
     49  CA        38.0330   -6.2820  -15.2610 C.3    79  ARG79       0.1729
     50  C         36.6100   -5.7750  -15.2220 C.2    79  ARG79       0.2616
     51  O         36.2260   -4.9710  -16.0680 O.2    79  ARG79      -0.2715
     52  CB        38.9920   -5.1210  -14.9620 C.3    79  ARG79       0.0348
     53  CG        40.4500   -5.5280  -14.7470 C.3    79  ARG79       0.0492
     54  CD        40.8080   -5.4790  -13.2680 C.3    79  ARG79       0.2205
     55  NE        39.8290   -6.2270  -12.5020 N.pl3  79  ARG79      -0.0865
     56  CZ        38.9980   -5.7110  -11.6010 C.cat  79  ARG79       0.5346
     57  NH1       39.0110   -4.4190  -11.3130 N.pl3  79  ARG79       0.1354
     58  NH2       38.1240   -6.5060  -11.0050 N.pl3  79  ARG79       0.1354
     59  N         35.8190   -6.2450  -14.2640 N.am   80  LEU80      -0.1964
     60  CA        34.4260   -5.8060  -14.1670 C.3    80  LEU80       0.1713
     61  C         34.0730   -5.2480  -12.7890 C.2    80  LEU80       0.2458
     62  O         33.2510   -5.8040  -12.0570 O.2    80  LEU80      -0.2730
     63  CB        33.4870   -6.9610  -14.5100 C.3    80  LEU80       0.0310
     64  CG        33.5800   -7.5370  -15.9190 C.3    80  LEU80       0.0022
     65  CD1       32.8370   -8.8640  -15.9620 C.3    80  LEU80       0.0001
     66  CD2       32.9990   -6.5610  -16.9260 C.3    80  LEU80       0.0001
     67  N         34.6870   -4.1240  -12.4190 N.am   81  PRO81      -0.2727
     68  CA        34.3520   -3.5890  -11.1070 C.3    81  PRO81       0.1402
     69  C         33.1000   -2.7390  -11.1230 C.2    81  PRO81       0.2269
     70  O         32.6340   -2.3110  -12.1720 O.2    81  PRO81      -0.2865
     71  CB        35.5770   -2.7590  -10.7610 C.3    81  PRO81       0.0296
     72  CG        35.9290   -2.1690  -12.0920 C.3    81  PRO81       0.0237
     73  CD        35.7970   -3.3690  -13.0300 C.3    81  PRO81       0.0939
     74  N         36.8310   -0.7440   -7.3520 N.3    85  GLN85      -0.1245
     75  CA        36.8280   -2.0300   -6.6760 C.3    85  GLN85       0.1566
     76  C         37.7790   -1.9990   -5.5000 C.2    85  GLN85       0.2260
     77  O         38.9300   -1.5740   -5.6330 O.2    85  GLN85      -0.2867
     78  CB        37.2370   -3.1460   -7.6300 C.3    85  GLN85       0.0367
     79  CG        37.1400   -4.5370   -7.0140 C.3    85  GLN85       0.0905
     80  CD        37.3300   -5.6260   -8.0430 C.2    85  GLN85       0.2608
     81  OE1       36.8360   -5.5120   -9.1620 O.2    85  GLN85      -0.2717
     82  NE2       38.0290   -6.6900   -7.6730 N.am   85  GLN85      -0.0878
     83  N         27.5060   -8.5860  -14.9010 N.3   140  ARG140     -0.1245
     84  CA        28.8550   -9.0170  -15.2480 C.3   140  ARG140      0.1563
     85  C         28.7670  -10.0890  -16.3450 C.2   140  ARG140      0.2260
     86  O         29.6190  -10.1590  -17.2470 O.2   140  ARG140     -0.2867
     87  CB        29.5850   -9.5840  -14.0230 C.3   140  ARG140      0.0307
     88  CG        29.9690   -8.5340  -12.9990 C.3   140  ARG140      0.0489
     89  CD        31.1840   -8.9560  -12.1700 C.3   140  ARG140      0.2205
     90  NE        31.5870   -7.8780  -11.2750 N.pl3 140  ARG140     -0.0865
     91  CZ        31.0310   -7.6270  -10.0920 C.cat 140  ARG140      0.5346
     92  NH1       30.0460   -8.3940   -9.6390 N.pl3 140  ARG140      0.1354
     93  NH2       31.4330   -6.5800   -9.3760 N.pl3 140  ARG140      0.1354
     94  N         30.2950  -10.0080  -20.2870 N.3   144  GLN144     -0.1245
     95  CA        31.1100  -11.0600  -20.9060 C.3   144  GLN144      0.1566
     96  C         30.4540  -11.6660  -22.1560 C.2   144  GLN144      0.2260
     97  O         31.1300  -12.0000  -23.1250 O.2   144  GLN144     -0.2867
     98  CB        31.4290  -12.1480  -19.8790 C.3   144  GLN144      0.0367
     99  CG        32.2500  -11.5930  -18.7320 C.3   144  GLN144      0.0905
    100  CD        32.3780  -12.5380  -17.5680 C.2   144  GLN144      0.2608
    101  OE1       33.1550  -13.4940  -17.6130 O.2   144  GLN144     -0.2717
    102  NE2       31.6100  -12.2820  -16.5130 N.am  144  GLN144     -0.0878
    103  N         33.9050  -19.9920  -13.7950 N.3   158  THR158     -0.1218
    104  CA        34.8690  -20.4200  -12.7970 C.3   158  THR158      0.1862
    105  C         34.3300  -21.3510  -11.7300 C.2   158  THR158      0.2287
    106  O         34.9690  -21.5550  -10.7020 O.2   158  THR158     -0.2866
    107  CB        35.4960  -19.2050  -12.1140 C.3   158  THR158      0.1770
    108  OG1       34.4910  -18.5050  -11.3750 O.3   158  THR158     -0.2211
    109  CG2       36.0790  -18.2740  -13.1550 C.3   158  THR158      0.0375
    110  N         32.4020  -24.3700   -4.7080 N.3   163  GLU163     -0.1245
    111  CA        31.2690  -23.4570   -4.8420 C.3   163  GLU163      0.1567
    112  C         29.9950  -24.1970   -5.2380 C.2   163  GLU163      0.2260
    113  O         28.8900  -23.8290   -4.8190 O.2   163  GLU163     -0.2867
    114  CB        31.5590  -22.3740   -5.8920 C.3   163  GLU163      0.0388
    115  CG        32.4590  -21.2400   -5.4210 C.3   163  GLU163      0.1160
    116  CD        32.7680  -20.2280   -6.5200 C.2   163  GLU163      0.3649
    117  OE1       32.1170  -20.2700   -7.5880 O.co2 163  GLU163     -0.2457
    118  OE2       33.6550  -19.3770   -6.3060 O.co2 163  GLU163     -0.2457
    119  N         27.1920  -21.8080   -4.3420 N.3   168  PHE168     -0.1227
    120  CA        27.5930  -20.4390   -4.0730 C.3   168  PHE168      0.1736
    121  C         27.9980  -19.6500   -5.3050 C.2   168  PHE168      0.2595
    122  O         29.1850  -19.4720   -5.5970 O.2   168  PHE168     -0.2718
    123  CB        28.7190  -20.4520   -3.0450 C.3   168  PHE168      0.0547
    124  CG        28.8310  -19.1920   -2.2600 C.ar  168  PHE168     -0.0202
    125  CD1       27.6940  -18.5900   -1.7280 C.ar  168  PHE168     -0.0042
    126  CD2       30.0750  -18.6170   -2.0140 C.ar  168  PHE168     -0.0042
    127  CE1       27.7990  -17.4310   -0.9560 C.ar  168  PHE168     -0.0003
    128  CE2       30.1860  -17.4620   -1.2460 C.ar  168  PHE168     -0.0003
    129  CZ        29.0460  -16.8700   -0.7140 C.ar  168  PHE168     -0.0000
    130  N         26.9800  -19.1880   -6.0250 N.am  169  PHE169     -0.1976
    131  CA        27.1430  -18.3910   -7.2250 C.3   169  PHE169      0.1639
    132  C         25.7570  -17.8490   -7.5530 C.2   169  PHE169      0.2290
    133  O         24.7770  -18.2820   -6.9650 O.2   169  PHE169     -0.2864
    134  CB        27.7190  -19.2440   -8.3700 C.3   169  PHE169      0.0560
    135  CG        26.8610  -20.4160   -8.7640 C.ar  169  PHE169     -0.0200
    136  CD1       25.8030  -20.2570   -9.6580 C.ar  169  PHE169     -0.0042
    137  CD2       27.1200  -21.6840   -8.2510 C.ar  169  PHE169     -0.0042
    138  CE1       25.0190  -21.3390  -10.0380 C.ar  169  PHE169     -0.0003
    139  CE2       26.3430  -22.7750   -8.6240 C.ar  169  PHE169     -0.0003
    140  CZ        25.2900  -22.6020   -9.5210 C.ar  169  PHE169     -0.0000
    141  N         27.2930  -15.1910  -12.4100 N.3   174  ASP174     -0.1239
    142  CA        28.6140  -15.7490  -12.6680 C.3   174  ASP174      0.1674
    143  C         28.3970  -17.2270  -12.9410 C.2   174  ASP174      0.2266
    144  O         29.2360  -17.8880  -13.5350 O.2   174  ASP174     -0.2867
    145  CB        29.5400  -15.5770  -11.4640 C.3   174  ASP174      0.1410
    146  CG        28.9750  -16.1930  -10.2070 C.2   174  ASP174      0.3668
    147  OD1       27.8760  -15.7740   -9.7820 O.co2 174  ASP174     -0.2456
    148  OD2       29.6330  -17.0960   -9.6440 O.co2 174  ASP174     -0.2456
    149  N         36.0430  -14.1790   -1.7690 N.3   209  THR209     -0.1203
    150  CA        34.9200  -13.2730   -1.5980 C.3   209  THR209      0.1994
    151  C         34.2390  -12.9510   -2.9230 C.2   209  THR209      0.2618
    152  O         34.8980  -12.7930   -3.9500 O.2   209  THR209     -0.2717
    153  CB        35.3600  -11.9520   -0.9200 C.3   209  THR209      0.1784
    154  OG1       34.2310  -11.0810   -0.7990 O.3   209  THR209     -0.2211
    155  CG2       36.4470  -11.2580   -1.7340 C.3   209  THR209      0.0376
    156  N         32.9130  -12.8620   -2.8880 N.am  210  ALA210     -0.1965
    157  CA        32.1320  -12.5690   -4.0700 C.3   210  ALA210      0.1728
    158  C         32.0400  -11.0610   -4.2150 C.2   210  ALA210      0.2616
    159  O         31.7120  -10.5520   -5.2750 O.2   210  ALA210     -0.2715
    160  CB        30.7620  -13.1720   -3.9280 C.3   210  ALA210      0.0334
    161  N         32.3370  -10.3650   -3.1250 N.am  211  ASP211     -0.1957
    162  CA        32.3290   -8.9040   -3.0650 C.3   211  ASP211      0.1840
    163  C         31.2040   -8.2600   -3.8830 C.2   211  ASP211      0.2621
    164  O         31.4550   -7.5380   -4.8490 O.2   211  ASP211     -0.2715
    165  CB        33.7030   -8.3690   -3.5050 C.3   211  ASP211      0.1450
    166  CG        33.8320   -6.8500   -3.3550 C.2   211  ASP211      0.3671
    167  OD1       33.2280   -6.2660   -2.4240 O.co2 211  ASP211     -0.2456
    168  OD2       34.5620   -6.2380   -4.1630 O.co2 211  ASP211     -0.2456
    169  N         29.9630   -8.5120   -3.4670 N.am  212  LEU212     -0.1977
    170  CA        28.7970   -7.9790   -4.1510 C.3   212  LEU212      0.1596
    171  C         28.0150   -6.9430   -3.3310 C.2   212  LEU212      0.2287
    172  O         27.3830   -6.0450   -3.9000 O.2   212  LEU212     -0.2864
    173  CB        27.8490   -9.1200   -4.5180 C.3   212  LEU212      0.0297
    174  CG        28.3790  -10.2670   -5.3750 C.3   212  LEU212      0.0022
    175  CD1       27.2750  -11.3160   -5.5310 C.3   212  LEU212      0.0001
    176  CD2       28.8260   -9.7510   -6.7350 C.3   212  LEU212      0.0001
    177  N         33.6460  -15.2880    2.1450 N.3   221  ASP221     -0.1239
    178  CA        32.7250  -16.3430    1.7740 C.3   221  ASP221      0.1674
    179  C         32.3670  -17.0860    3.0390 C.2   221  ASP221      0.2266
    180  O         31.1950  -17.2430    3.3600 O.2   221  ASP221     -0.2867
    181  CB        33.3990  -17.3030    0.7990 C.3   221  ASP221      0.1410
    182  CG        33.4570  -16.7560   -0.6050 C.2   221  ASP221      0.3668
    183  OD1       33.3310  -15.5220   -0.7880 O.co2 221  ASP221     -0.2456
    184  OD2       33.6340  -17.5720   -1.5300 O.co2 221  ASP221     -0.2456
@<TRIPOS>BOND
     1    97    96    2
     2    96    95    1
     3    95    94    1
     4    95    98    1
     5     1     2    1
     6    98    99    1
     7    45    46    1
     8    45    47    1
     9    45    42    1
    10     2     5    1
    11     2     3    1
    12    99   100    1
    13    41    42    1
    14    42    43    1
    15     5     6    1
    16     4     3    2
    17     3     9   am
    18   101   100    2
    19   100   102   am
    20    86    85    2
    21    43    48   am
    22    43    44    2
    23    66    64    1
    24     9    10    1
    25     6     8    1
    26     6     7    1
    27    48    49    1
    28    85    84    1
    29    51    50    2
    30    10    11    1
    31    65    64    1
    32    64    63    1
    33    20    18    1
    34    18    17    1
    35    49    50    1
    36    49    52    1
    37    84    83    1
    38    84    87    1
    39    50    59   am
    40    52    53    1
    41    11    13   am
    42    11    12    2
    43    13    14    1
    44    53    54    1
    45    63    60    1
    46    59    60    1
    47    17    14    1
    48    17    19    1
    49    60    61    1
    50    87    88    1
    51   103   104    1
    52    14    15    1
    53    38    37    2
    54   144   143    2
    55    54    55    1
    56   109   107    1
    57    73    67    1
    58    73    72    1
    59    88    89    1
    60   143   142    1
    61   104   107    1
    62   104   105    1
    63    61    67   am
    64    61    62    2
    65   142   141    1
    66   142   145    1
    67    16    15    2
    68    15    21   am
    69    55    56    2
    70    67    68    1
    71    37    36    1
    72    70    69    2
    73    89    90    1
    74   107   108    1
    75    72    71    1
    76    36    39    1
    77    36    35    1
    78    39    40    1
    79   105   106    2
    80    56    57    1
    81    56    58    1
    82    30    29    2
    83   145   146    1
    84    21    22    1
    85    90    91    2
    86    69    68    1
    87    68    71    1
    88    35    29   am
    89    29    28    1
    90   146   147   ar
    91   146   148   ar
    92    22    25    1
    93    22    23    1
    94    91    92    1
    95    91    93    1
    96   138   136   ar
    97   138   140   ar
    98   136   135   ar
    99   140   139   ar
   100    25    26    1
   101    23    24    2
   102    28    31    1
   103    28    27    1
   104    81    80    2
   105    31    32    1
   106   135   134    1
   107   135   137   ar
   108   139   137   ar
   109   134   131    1
   110    80    82   am
   111    80    79    1
   112    78    79    1
   113    78    75    1
   114   117   116   ar
   115   132   131    1
   116   132   133    2
   117    32    33   ar
   118    32    34   ar
   119    74    75    1
   120   131   130    1
   121   176   174    1
   122    75    76    1
   123   116   118   ar
   124   116   115    1
   125   130   121   am
   126   114   115    1
   127   114   111    1
   128    77    76    2
   129   122   121    2
   130   175   174    1
   131   174   173    1
   132   121   120    1
   133   159   158    2
   134   112   111    1
   135   112   113    2
   136   164   163    2
   137   111   110    1
   138   173   170    1
   139   119   120    1
   140   158   157    1
   141   158   161   am
   142   168   166   ar
   143   170   169    1
   144   170   171    1
   145   120   123    1
   146   157   160    1
   147   157   156    1
   148   152   151    2
   149   172   171    2
   150   163   169   am
   151   163   162    1
   152   165   166    1
   153   165   162    1
   154   166   167   ar
   155   161   162    1
   156   123   124    1
   157   151   156   am
   158   151   150    1
   159   124   126   ar
   160   124   125   ar
   161   126   128   ar
   162   149   150    1
   163   155   153    1
   164   125   127   ar
   165   150   153    1
   166   184   182   ar
   167   128   129   ar
   168   127   129   ar
   169   153   154    1
   170   183   182   ar
   171   182   181    1
   172   181   178    1
   173   178   177    1
   174   178   179    1
   175   179   180    2
