@<TRIPOS>MOLECULE
tmp/2pzaA01.pdb
 85 79 0 0 0
SMALL
GASTEIGER

@<TRIPOS>ATOM
      1  N         38.6580  -11.1610  -11.3660 N.3    47  SER47      -0.1217
      2  CA        38.3080  -10.4200  -10.1550 C.3    47  SER47       0.1889
      3  C         39.4480  -10.1700   -9.1840 C.2    47  SER47       0.2288
      4  O         39.3190   -9.3570   -8.2680 O.2    47  SER47      -0.2866
      5  CB        37.2230  -11.1650   -9.3800 C.3    47  SER47       0.2089
      6  OG        37.7600  -12.3280   -8.7740 O.3    47  SER47      -0.2183
      7  N         40.4290  -12.6030   -7.5750 N.3    49  GLY49      -0.1210
      8  CA        40.1940  -13.7520   -6.7270 C.3    49  GLY49       0.1956
      9  C         40.8260  -15.0020   -7.3170 C.2    49  GLY49       0.2612
     10  O         41.0520  -15.1150   -8.5210 O.2    49  GLY49      -0.2717
     11  N         41.1020  -15.9460   -6.4390 N.am   50  GLN50      -0.1965
     12  CA        41.7130  -17.2180   -6.7760 C.3    50  GLN50       0.1733
     13  C         41.1840  -17.9570   -8.0140 C.2    50  GLN50       0.2616
     14  O         41.9540  -18.3200   -8.9050 O.2    50  GLN50      -0.2715
     15  CB        41.5870  -18.1230   -5.5570 C.3    50  GLN50       0.0408
     16  CG        42.1270  -19.4930   -5.7340 C.3    50  GLN50       0.0908
     17  CD        41.8690  -20.3540   -4.5270 C.2    50  GLN50       0.2608
     18  OE1       42.2490  -20.0010   -3.4090 O.2    50  GLN50      -0.2717
     19  NE2       41.2260  -21.4930   -4.7410 N.am   50  GLN50      -0.0878
     20  N         39.8730  -18.1800   -8.0670 N.am   51  ASP51      -0.1957
     21  CA        39.2650  -18.9260   -9.1690 C.3    51  ASP51       0.1840
     22  C         39.3910  -18.3220  -10.5780 C.2    51  ASP51       0.2622
     23  O         39.7690  -19.0250  -11.5190 O.2    51  ASP51      -0.2715
     24  CB        37.7920  -19.2100   -8.8500 C.3    51  ASP51       0.1450
     25  CG        37.5950  -19.8440   -7.4660 C.2    51  ASP51       0.3671
     26  OD1       38.3690  -20.7620   -7.0830 O.co2  51  ASP51      -0.2456
     27  OD2       36.6430  -19.4260   -6.7690 O.co2  51  ASP51      -0.2456
     28  N         39.0660  -17.0380  -10.7320 N.am   52  SER52      -0.1950
     29  CA        39.1770  -16.3850  -12.0370 C.3    52  SER52       0.1924
     30  C         40.6440  -16.2800  -12.4140 C.2    52  SER52       0.2314
     31  O         40.9970  -16.4110  -13.5830 O.2    52  SER52      -0.2863
     32  CB        38.5230  -14.9950  -12.0280 C.3    52  SER52       0.2116
     33  OG        39.0160  -14.1790  -10.9890 O.3    52  SER52      -0.2180
     34  N         33.9050  -19.9920  -13.7950 N.3   158  THR158     -0.1218
     35  CA        34.8690  -20.4200  -12.7970 C.3   158  THR158      0.1862
     36  C         34.3300  -21.3510  -11.7300 C.2   158  THR158      0.2287
     37  O         34.9690  -21.5550  -10.7020 O.2   158  THR158     -0.2866
     38  CB        35.4960  -19.2050  -12.1140 C.3   158  THR158      0.1770
     39  OG1       34.4910  -18.5050  -11.3750 O.3   158  THR158     -0.2211
     40  CG2       36.0790  -18.2740  -13.1550 C.3   158  THR158      0.0375
     41  N         32.4020  -24.3700   -4.7080 N.3   163  GLU163     -0.1245
     42  CA        31.2690  -23.4570   -4.8420 C.3   163  GLU163      0.1567
     43  C         29.9950  -24.1970   -5.2380 C.2   163  GLU163      0.2260
     44  O         28.8900  -23.8290   -4.8190 O.2   163  GLU163     -0.2867
     45  CB        31.5590  -22.3740   -5.8920 C.3   163  GLU163      0.0388
     46  CG        32.4590  -21.2400   -5.4210 C.3   163  GLU163      0.1160
     47  CD        32.7680  -20.2280   -6.5200 C.2   163  GLU163      0.3649
     48  OE1       32.1170  -20.2700   -7.5880 O.co2 163  GLU163     -0.2457
     49  OE2       33.6550  -19.3770   -6.3060 O.co2 163  GLU163     -0.2457
     50  N         38.6570  -26.1870   -3.2150 N.3   187  LYS187     -0.1245
     51  CA        39.3640  -24.9270   -3.0770 C.3   187  LYS187      0.1561
     52  C         40.8760  -25.1280   -2.9220 C.2   187  LYS187      0.2260
     53  O         41.6680  -24.5300   -3.6560 O.2   187  LYS187     -0.2867
     54  CB        38.8120  -24.1480   -1.8830 C.3   187  LYS187      0.0271
     55  CG        39.1600  -22.6710   -1.8730 C.3   187  LYS187      0.0035
     56  CD        38.3740  -21.9010   -2.9380 C.3   187  LYS187      0.0206
     57  CE        38.6520  -20.3970   -2.8650 C.3   187  LYS187      0.1093
     58  NZ        37.7910  -19.6090   -3.7890 N.3   187  LYS187     -0.1314
     59  N         38.7320  -15.6530   -0.0620 N.3   208  PRO208     -0.2102
     60  CA        37.6540  -15.8390   -1.0410 C.3   208  PRO208      0.1504
     61  C         36.4780  -14.9180   -0.7570 C.2   208  PRO208      0.2576
     62  O         35.9760  -14.8770    0.3640 O.2   208  PRO208     -0.2718
     63  CB        37.2900  -17.3170   -0.8800 C.3   208  PRO208      0.0282
     64  CG        38.5930  -17.9340   -0.4590 C.3   208  PRO208      0.0208
     65  CD        39.0940  -16.9380    0.5620 C.3   208  PRO208      0.0893
     66  N         36.0430  -14.1790   -1.7690 N.am  209  THR209     -0.1939
     67  CA        34.9200  -13.2730   -1.5980 C.3   209  THR209      0.2028
     68  C         34.2390  -12.9510   -2.9230 C.2   209  THR209      0.2642
     69  O         34.8980  -12.7930   -3.9500 O.2   209  THR209     -0.2714
     70  CB        35.3600  -11.9520   -0.9200 C.3   209  THR209      0.1808
     71  OG1       34.2310  -11.0810   -0.7990 O.3   209  THR209     -0.2208
     72  CG2       36.4470  -11.2580   -1.7340 C.3   209  THR209      0.0379
     73  N         32.9130  -12.8620   -2.8880 N.am  210  ALA210     -0.1977
     74  CA        32.1320  -12.5690   -4.0700 C.3   210  ALA210      0.1597
     75  C         32.0400  -11.0610   -4.2150 C.2   210  ALA210      0.2287
     76  O         31.7120  -10.5520   -5.2750 O.2   210  ALA210     -0.2864
     77  CB        30.7620  -13.1720   -3.9280 C.3   210  ALA210      0.0319
     78  N         33.6460  -15.2880    2.1450 N.3   221  ASP221     -0.1239
     79  CA        32.7250  -16.3430    1.7740 C.3   221  ASP221      0.1674
     80  C         32.3670  -17.0860    3.0390 C.2   221  ASP221      0.2266
     81  O         31.1950  -17.2430    3.3600 O.2   221  ASP221     -0.2867
     82  CB        33.3990  -17.3030    0.7990 C.3   221  ASP221      0.1410
     83  CG        33.4570  -16.7560   -0.6050 C.2   221  ASP221      0.3668
     84  OD1       33.3310  -15.5220   -0.7880 O.co2 221  ASP221     -0.2456
     85  OD2       33.6340  -17.5720   -1.5300 O.co2 221  ASP221     -0.2456
@<TRIPOS>BOND
     1    34    35    1
     2    31    30    2
     3    40    38    1
     4    35    38    1
     5    35    36    1
     6    30    29    1
     7    38    39    1
     8    29    32    1
     9    29    28    1
    10    32    33    1
    11    36    37    2
    12    23    22    2
    13     1     2    1
    14    28    22   am
    15    22    21    1
    16     2     5    1
    17     2     3    1
    18     5     6    1
    19     3     4    2
    20    21    24    1
    21    21    20    1
    22    14    13    2
    23    24    25    1
    24    10     9    2
    25    20    13   am
    26    13    12    1
    27    48    47   ar
    28     7     8    1
    29    25    26   ar
    30    25    27   ar
    31     9     8    1
    32     9    11   am
    33    12    11    1
    34    12    15    1
    35    47    49   ar
    36    47    46    1
    37    45    46    1
    38    45    42    1
    39    16    15    1
    40    16    17    1
    41    76    75    2
    42    43    42    1
    43    43    44    2
    44    42    41    1
    45    19    17   am
    46    17    18    2
    47    75    74    1
    48    74    77    1
    49    74    73    1
    50    69    68    2
    51    58    57    1
    52    53    52    2
    53    50    51    1
    54    51    52    1
    55    51    54    1
    56    56    57    1
    57    56    55    1
    58    68    73   am
    59    68    67    1
    60    54    55    1
    61    66    67    1
    62    66    61   am
    63    72    70    1
    64    67    70    1
    65    85    83   ar
    66    60    63    1
    67    60    61    1
    68    60    59    1
    69    70    71    1
    70    63    64    1
    71    84    83   ar
    72    61    62    2
    73    83    82    1
    74    64    65    1
    75    59    65    1
    76    82    79    1
    77    79    78    1
    78    79    80    1
    79    80    81    2
