@<TRIPOS>MOLECULE
tmp/2pzeB00.pdb
 89 87 0 0 0
SMALL
GASTEIGER

@<TRIPOS>ATOM
      1  N         11.7580   23.6610   61.4070 N.3   112  LYS112     -0.1231
      2  CA        12.0820   23.6450   62.8330 C.3   112  LYS112      0.1693
      3  C         13.5690   23.3550   63.0490 C.2   112  LYS112      0.2592
      4  O         14.1180   23.6540   64.1190 O.2   112  LYS112     -0.2718
      5  CB        11.2290   22.6130   63.5840 C.3   112  LYS112      0.0285
      6  CG         9.7480   22.8440   63.3330 C.3   112  LYS112      0.0035
      7  CD         8.9050   22.2950   64.4580 C.3   112  LYS112      0.0206
      8  CE         7.3700   22.4680   64.2970 C.3   112  LYS112      0.1093
      9  NZ         6.8110   22.3970   62.9310 N.3   112  LYS112     -0.1314
     10  N         14.2190   22.7700   62.0400 N.am  113  PHE113     -0.1976
     11  CA        15.6340   22.4030   62.1470 C.3   113  PHE113      0.1639
     12  C         16.5600   23.5040   61.6280 C.2   113  PHE113      0.2290
     13  O         16.3170   24.1010   60.5740 O.2   113  PHE113     -0.2864
     14  CB        15.9380   21.0880   61.4220 C.3   113  PHE113      0.0560
     15  CG        14.9780   19.9630   61.7500 C.ar  113  PHE113     -0.0200
     16  CD1       14.6630   19.6510   63.0770 C.ar  113  PHE113     -0.0042
     17  CD2       14.4070   19.2050   60.7300 C.ar  113  PHE113     -0.0042
     18  CE1       13.7810   18.6150   63.3780 C.ar  113  PHE113     -0.0003
     19  CE2       13.5240   18.1660   61.0220 C.ar  113  PHE113     -0.0003
     20  CZ        13.2110   17.8700   62.3470 C.ar  113  PHE113     -0.0000
     21  N         16.4910    7.5780   64.5880 N.3   126  ILE126     -0.1231
     22  CA        16.0980    7.5420   66.0060 C.3   126  ILE126      0.1692
     23  C         15.6910    8.9160   66.5500 C.2   126  ILE126      0.2593
     24  O         14.9210    9.0130   67.5120 O.2   126  ILE126     -0.2718
     25  CB        17.2310    6.9560   66.8920 C.3   126  ILE126      0.0266
     26  CG1       17.3540    5.4470   66.5970 C.3   126  ILE126      0.0019
     27  CG2       16.9850    7.2330   68.3550 C.3   126  ILE126      0.0020
     28  CD1       18.5830    4.8080   67.1830 C.3   126  ILE126      0.0001
     29  N         16.1950    9.9700   65.9180 N.am  127  THR127     -0.1939
     30  CA        15.9160   11.3300   66.3620 C.3   127  THR127      0.2028
     31  C         14.6880   11.9570   65.6970 C.2   127  THR127      0.2642
     32  O         14.2610   13.0310   66.0920 O.2   127  THR127     -0.2714
     33  CB        17.1510   12.2420   66.2240 C.3   127  THR127      0.1808
     34  OG1       17.5570   12.3020   64.8550 O.3   127  THR127     -0.2208
     35  CG2       18.3050   11.6910   67.0790 C.3   127  THR127      0.0379
     36  N         14.1270   11.3000   64.6880 N.am  128  LEU128     -0.1963
     37  CA        12.8560   11.7590   64.1300 C.3   128  LEU128      0.1728
     38  C         11.6720   11.2560   64.9420 C.2   128  LEU128      0.2617
     39  O         11.7290   10.1760   65.5410 O.2   128  LEU128     -0.2715
     40  CB        12.6970   11.3080   62.6820 C.3   128  LEU128      0.0311
     41  CG        13.7400   11.9280   61.7410 C.3   128  LEU128      0.0022
     42  CD1       13.5030   11.4880   60.3530 C.3   128  LEU128      0.0001
     43  CD2       13.7560   13.4600   61.8490 C.3   128  LEU128      0.0001
     44  N         10.5810   12.0140   64.9330 N.am  129  SER129     -0.1936
     45  CA         9.3450   11.5170   65.5130 C.3   129  SER129      0.2055
     46  C          8.8020   10.3960   64.6110 C.2   129  SER129      0.2644
     47  O          9.2410   10.2460   63.4530 O.2   129  SER129     -0.2714
     48  CB         8.3220   12.6290   65.6340 C.3   129  SER129      0.2130
     49  OG         7.8750   13.0140   64.3460 O.3   129  SER129     -0.2179
     50  N          7.8490    9.6260   65.1360 N.am  130  GLY130     -0.1939
     51  CA         7.2350    8.5500   64.3640 C.3   130  GLY130      0.2014
     52  C          6.5930    9.0670   63.0940 C.2   130  GLY130      0.2639
     53  O          6.8140    8.4900   62.0100 O.2   130  GLY130     -0.2714
     54  N          5.8350   10.1560   63.1990 N.am  131  GLY131     -0.1939
     55  CA         5.1510   10.7610   62.0530 C.3   131  GLY131      0.2014
     56  C          6.0840   11.3990   61.0260 C.2   131  GLY131      0.2638
     57  O          5.7760   11.4590   59.8200 O.2   131  GLY131     -0.2714
     58  N          7.2060   11.9330   61.5030 N.am  132  GLN132     -0.1977
     59  CA         8.2430   12.4450   60.5850 C.3   132  GLN132      0.1601
     60  C          8.8350   11.2940   59.7760 C.2   132  GLN132      0.2287
     61  O          8.9850   11.4180   58.5570 O.2   132  GLN132     -0.2864
     62  CB         9.3310   13.1960   61.3510 C.3   132  GLN132      0.0394
     63  CG         8.9020   14.5850   61.7910 C.3   132  GLN132      0.0908
     64  CD         9.8060   15.2060   62.8610 C.2   132  GLN132      0.2608
     65  OE1       10.7110   14.5610   63.4100 O.2   132  GLN132     -0.2717
     66  NE2        9.5340   16.4640   63.1770 N.am  132  GLN132     -0.0878
     67  N          6.3130   10.3320   57.1320 N.3   135  ARG135     -0.1245
     68  CA         6.1850   11.2680   56.0100 C.3   135  ARG135      0.1563
     69  C          7.4400   11.2310   55.1180 C.2   135  ARG135      0.2260
     70  O          7.3480   11.4020   53.8970 O.2   135  ARG135     -0.2867
     71  CB         5.9290   12.6840   56.5110 C.3   135  ARG135      0.0307
     72  CG         4.5040   12.8870   57.0330 C.3   135  ARG135      0.0489
     73  CD         4.3800   14.2290   57.7410 C.3   135  ARG135      0.2205
     74  NE         4.9250   14.1220   59.0920 N.pl3 135  ARG135     -0.0865
     75  CZ         5.1660   15.1520   59.8880 C.cat 135  ARG135      0.5346
     76  NH1        5.6750   14.9480   61.0990 N.pl3 135  ARG135      0.1354
     77  NH2        4.8910   16.3850   59.4770 N.pl3 135  ARG135      0.1354
     78  N          1.2370    6.0530   61.8630 N.3   157  TYR157     -0.1241
     79  CA         1.7250    6.8750   62.9810 C.3   157  TYR157      0.1605
     80  C          1.3150    8.3430   62.9840 C.2   157  TYR157      0.2264
     81  O          1.8710    9.1440   63.7470 O.2   157  TYR157     -0.2867
     82  CB         3.2390    6.7440   63.1100 C.3   157  TYR157      0.0534
     83  CG         3.6560    5.5100   63.9010 C.ar  157  TYR157     -0.0201
     84  CD1        2.7950    4.9340   64.8530 C.ar  157  TYR157     -0.0009
     85  CD2        4.9110    4.9400   63.7150 C.ar  157  TYR157     -0.0009
     86  CE1        3.1710    3.8080   65.5730 C.ar  157  TYR157      0.0417
     87  CE2        5.2950    3.8220   64.4230 C.ar  157  TYR157      0.0417
     88  CZ         4.4230    3.2580   65.3550 C.ar  157  TYR157      0.1957
     89  OH         4.8190    2.1470   66.0700 O.3   157  TYR157     -0.2866
@<TRIPOS>BOND
     1    70    69    2
     2    69    68    1
     3    68    71    1
     4    68    67    1
     5    71    72    1
     6    72    73    1
     7    73    74    1
     8    61    60    2
     9    74    75    2
    10    77    75    1
    11    60    59    1
    12    57    56    2
    13    75    76    1
    14    42    41    1
    15    13    12    2
    16    59    62    1
    17    59    58    1
    18    17    19   ar
    19    17    15   ar
    20    19    20   ar
    21    56    58   am
    22    56    55    1
    23    62    63    1
    24     1     2    1
    25    14    15    1
    26    14    11    1
    27    12    11    1
    28    41    43    1
    29    41    40    1
    30    15    16   ar
    31    63    64    1
    32    78    79    1
    33    53    52    2
    34    10    11    1
    35    10     3   am
    36    55    54    1
    37    20    18   ar
    38    40    37    1
    39     2     3    1
    40     2     5    1
    41    64    66   am
    42    64    65    2
    43     9     8    1
    44    79    80    1
    45    79    82    1
    46    80    81    2
    47     3     4    2
    48    16    18   ar
    49    52    54   am
    50    52    51    1
    51    82    83    1
    52     6     5    1
    53     6     7    1
    54    47    46    2
    55    85    83   ar
    56    85    87   ar
    57    83    84   ar
    58    37    36    1
    59    37    38    1
    60     8     7    1
    61    49    48    1
    62    51    50    1
    63    87    88   ar
    64    21    22    1
    65    46    50   am
    66    46    45    1
    67    36    31   am
    68    84    86   ar
    69    34    33    1
    70    44    38   am
    71    44    45    1
    72    38    39    2
    73    88    86   ar
    74    88    89    1
    75    45    48    1
    76    31    32    2
    77    31    30    1
    78    29    30    1
    79    29    23   am
    80    22    23    1
    81    22    25    1
    82    33    30    1
    83    33    35    1
    84    23    24    2
    85    26    25    1
    86    26    28    1
    87    25    27    1
