@<TRIPOS>MOLECULE
tmp/2pziA00.pdb
 152 143 0 0 0
SMALL
GASTEIGER

@<TRIPOS>ATOM
      1  N         17.6920   -7.5190    5.2370 N.3    18  ILE18      -0.1245
      2  CA        16.6570   -8.4770    4.8860 C.3    18  ILE18       0.1561
      3  C         17.1140   -9.9150    5.1950 C.2    18  ILE18       0.2260
      4  O         18.2100  -10.3440    4.8200 O.2    18  ILE18      -0.2867
      5  CB        16.1910   -8.2610    3.4240 C.3    18  ILE18       0.0252
      6  CG1       15.7460   -6.8060    3.2430 C.3    18  ILE18       0.0019
      7  CG2       15.0410   -9.1890    3.0650 C.3    18  ILE18       0.0019
      8  CD1       15.6770   -6.3430    1.8040 C.3    18  ILE18       0.0001
      9  N         13.5730  -12.3490    1.9730 N.3    23  ALA23      -0.1245
     10  CA        14.0840  -12.0980    0.6270 C.3    23  ALA23       0.1562
     11  C         13.4450  -12.9830   -0.4510 C.2    23  ALA23       0.2260
     12  O         13.3730  -12.5730   -1.6110 O.2    23  ALA23      -0.2867
     13  CB        15.6100  -12.2090    0.5890 C.3    23  ALA23       0.0290
     14  N         15.6900  -14.6080   -5.0340 N.3    83  ILE83      -0.1231
     15  CA        15.6960  -13.3740   -4.2480 C.3    83  ILE83       0.1692
     16  C         15.8370  -12.1100   -5.1320 C.2    83  ILE83       0.2592
     17  O         15.6960  -10.9900   -4.6320 O.2    83  ILE83      -0.2718
     18  CB        16.8220  -13.4180   -3.1640 C.3    83  ILE83       0.0266
     19  CG1       18.2110  -13.4890   -3.8280 C.3    83  ILE83       0.0019
     20  CG2       16.5910  -14.5810   -2.2250 C.3    83  ILE83       0.0020
     21  CD1       19.3830  -13.6410   -2.8850 C.3    83  ILE83       0.0001
     22  N         16.1020  -12.3150   -6.4350 N.am   84  ALA84      -0.1966
     23  CA        16.4220  -11.2550   -7.4190 C.3    84  ALA84       0.1728
     24  C         16.6680  -11.8010   -8.8360 C.2    84  ALA84       0.2616
     25  O         16.8110  -13.0110   -9.0430 O.2    84  ALA84      -0.2715
     26  CB        17.6580  -10.4600   -6.9730 C.3    84  ALA84       0.0334
     27  N         16.7690  -10.8780   -9.7940 N.am   85  HIS85      -0.1973
     28  CA        16.9870  -11.1800  -11.2120 C.3    85  HIS85       0.1656
     29  C         17.9150  -10.1260  -11.8370 C.2    85  HIS85       0.2291
     30  O         17.9470   -8.9740  -11.4060 O.2    85  HIS85      -0.2864
     31  CB        15.6350  -11.1610  -11.9370 C.3    85  HIS85       0.0771
     32  CG        15.6980  -11.5720  -13.3810 C.ar   85  HIS85       0.0820
     33  ND1       15.8850  -10.6700  -14.4040 N.ar   85  HIS85      -0.2267
     34  CD2       15.5740  -12.7880  -13.9720 C.ar   85  HIS85       0.1154
     35  CE1       15.8940  -11.3130  -15.5600 C.ar   85  HIS85       0.1986
     36  NE2       15.6950  -12.5990  -15.3260 N.ar   85  HIS85      -0.2212
     37  N         18.6120  -14.9450   -9.2830 N.3    91  ILE91      -0.1245
     38  CA        19.5550  -15.1290   -8.1890 C.3    91  ILE91       0.1561
     39  C         18.8940  -16.0370   -7.1680 C.2    91  ILE91       0.2260
     40  O         17.7880  -15.7720   -6.7290 O.2    91  ILE91      -0.2867
     41  CB        19.9560  -13.7910   -7.5340 C.3    91  ILE91       0.0252
     42  CG1       20.3150  -12.7290   -8.5920 C.3    91  ILE91       0.0019
     43  CG2       21.0920  -14.0010   -6.5550 C.3    91  ILE91       0.0019
     44  CD1       21.4740  -13.0700   -9.4980 C.3    91  ILE91       0.0001
     45  N         24.2190  -17.6730   -1.8330 N.3   105  VAL105     -0.1245
     46  CA        23.5990  -17.2530   -3.0730 C.3   105  VAL105      0.1561
     47  C         24.2850  -17.9000   -4.2790 C.2   105  VAL105      0.2260
     48  O         25.5100  -18.0040   -4.3330 O.2   105  VAL105     -0.2867
     49  CB        23.5360  -15.7110   -3.1420 C.3   105  VAL105      0.0252
     50  CG1       23.3050  -15.2120   -4.5530 C.3   105  VAL105      0.0019
     51  CG2       22.4470  -15.2230   -2.2040 C.3   105  VAL105      0.0019
     52  N         24.4500  -17.9220   -8.5840 N.3   107  LYS107     -0.1245
     53  CA        24.1330  -17.2390   -9.8410 C.3   107  LYS107      0.1561
     54  C         24.8730  -17.9420  -10.9840 C.2   107  LYS107      0.2260
     55  O         25.9870  -18.4430  -10.7910 O.2   107  LYS107     -0.2867
     56  CB        24.5120  -15.7600   -9.7280 C.3   107  LYS107      0.0271
     57  CG        24.3320  -14.9460  -10.9810 C.3   107  LYS107      0.0035
     58  CD        24.9330  -13.5590  -10.8160 C.3   107  LYS107      0.0206
     59  CE        24.9350  -12.8170  -12.1620 C.3   107  LYS107      0.1093
     60  NZ        24.7440  -11.3360  -12.0310 N.3   107  LYS107     -0.1314
     61  N         31.7560   -8.7890   -1.6960 N.3   137  VAL137     -0.1245
     62  CA        31.0810  -10.0640   -1.4160 C.3   137  VAL137      0.1561
     63  C         32.0820  -11.2180   -1.4600 C.2   137  VAL137      0.2260
     64  O         32.9990  -11.2130   -2.2950 O.2   137  VAL137     -0.2867
     65  CB        29.9180  -10.3020   -2.4380 C.3   137  VAL137      0.0252
     66  CG1       30.4610  -10.4190   -3.8590 C.3   137  VAL137      0.0019
     67  CG2       29.0530  -11.5190   -2.0700 C.3   137  VAL137      0.0019
     68  N         28.0450  -17.5900   -3.4830 N.3   158  MET158     -0.1230
     69  CA        28.4790  -16.3820   -2.7670 C.3   158  MET158      0.1702
     70  C         27.8310  -16.2510   -1.4020 C.2   158  MET158      0.2592
     71  O         26.8110  -16.8680   -1.1120 O.2   158  MET158     -0.2718
     72  CB        28.0010  -15.1400   -3.5080 C.3   158  MET158      0.0401
     73  CG        28.7610  -14.7120   -4.6890 C.3   158  MET158      0.0596
     74  SD        27.6480  -13.5540   -5.4650 S.3   158  MET158     -0.1393
     75  CE        26.9000  -14.6110   -6.7080 C.3   158  MET158      0.0692
     76  N         28.3980  -15.3520   -0.6150 N.am  159  GLU159     -0.1966
     77  CA        27.7770  -14.8200    0.5780 C.3   159  GLU159      0.1733
     78  C         26.4090  -14.1870    0.2750 C.2   159  GLU159      0.2616
     79  O         26.2480  -13.4650   -0.7240 O.2   159  GLU159     -0.2715
     80  CB        28.7280  -13.7700    1.1490 C.3   159  GLU159      0.0429
     81  CG        28.1820  -12.8730    2.2500 C.3   159  GLU159      0.1163
     82  CD        29.1330  -11.7210    2.6040 C.2   159  GLU159      0.3649
     83  OE1       30.1390  -11.4990    1.8830 O.co2 159  GLU159     -0.2457
     84  OE2       28.8570  -11.0280    3.6060 O.co2 159  GLU159     -0.2457
     85  N         25.4310  -14.4460    1.1380 N.am  160  TYR160     -0.1960
     86  CA        24.1770  -13.7040    1.1100 C.3   160  TYR160      0.1771
     87  C         24.3580  -12.2870    1.6710 C.2   160  TYR160      0.2619
     88  O         24.8600  -12.0960    2.7820 O.2   160  TYR160     -0.2715
     89  CB        23.0810  -14.4490    1.8790 C.3   160  TYR160      0.0574
     90  CG        21.8040  -13.6580    1.9990 C.ar  160  TYR160     -0.0198
     91  CD1       20.9060  -13.6000    0.9380 C.ar  160  TYR160     -0.0009
     92  CD2       21.4980  -12.9470    3.1670 C.ar  160  TYR160     -0.0009
     93  CE1       19.7430  -12.8590    1.0270 C.ar  160  TYR160      0.0417
     94  CE2       20.3350  -12.1930    3.2610 C.ar  160  TYR160      0.0417
     95  CZ        19.4610  -12.1530    2.1830 C.ar  160  TYR160      0.1957
     96  OH        18.2840  -11.4290    2.2390 O.3   160  TYR160     -0.2866
     97  N         23.9520  -11.2870    0.9030 N.am  161  VAL161     -0.1963
     98  CA        24.0340   -9.9160    1.3530 C.3   161  VAL161      0.1727
     99  C         22.6290   -9.3630    1.2540 C.2   161  VAL161      0.2617
    100  O         22.1150   -9.1600    0.1620 O.2   161  VAL161     -0.2715
    101  CB        25.0270   -9.0830    0.5000 C.3   161  VAL161      0.0290
    102  CG1       25.2680   -7.7050    1.1260 C.3   161  VAL161      0.0023
    103  CG2       26.3550   -9.7900    0.3540 C.3   161  VAL161      0.0023
    104  N         21.9970   -9.1560    2.4040 N.am  162  GLY162     -0.1940
    105  CA        20.6010   -8.7530    2.4670 C.3   162  GLY162      0.2014
    106  C         20.4610   -7.2610    2.5950 C.2   162  GLY162      0.2639
    107  O         19.7180   -6.7750    3.4340 O.2   162  GLY162     -0.2714
    108  N         21.1900   -6.5280    1.7680 N.am  163  GLY163     -0.1954
    109  CA        21.1240   -5.0700    1.7730 C.3   163  GLY163      0.1869
    110  C         20.1890   -4.4990    0.7050 C.2   163  GLY163      0.2309
    111  O         19.3280   -5.2050    0.1360 O.2   163  GLY163     -0.2863
    112  N         23.0080   -1.3570   -9.6500 N.3   202  GLU202     -0.1231
    113  CA        22.6160   -2.7420   -9.3910 C.3   202  GLU202      0.1699
    114  C         23.6340   -3.5280   -8.5660 C.2   202  GLU202      0.2592
    115  O         23.2580   -4.3490   -7.7200 O.2   202  GLU202     -0.2718
    116  CB        22.3690   -3.4530  -10.7360 C.3   202  GLU202      0.0402
    117  CG        21.8370   -4.9150  -10.6660 C.3   202  GLU202      0.1161
    118  CD        21.8350   -5.6590  -12.0340 C.2   202  GLU202      0.3649
    119  OE1       21.4130   -5.0700  -13.0620 O.co2 202  GLU202     -0.2457
    120  OE2       22.2430   -6.8470  -12.0740 O.co2 202  GLU202     -0.2457
    121  N         24.9200   -3.2810   -8.8180 N.am  203  ASN203     -0.1974
    122  CA        26.0150   -4.0620   -8.2130 C.3   203  ASN203      0.1688
    123  C         26.5540   -3.5010   -6.9010 C.2   203  ASN203      0.2292
    124  O         27.5050   -4.0490   -6.3350 O.2   203  ASN203     -0.2864
    125  CB        27.1650   -4.2240   -9.2220 C.3   203  ASN203      0.1181
    126  CG        26.8530   -5.2540  -10.3020 C.2   203  ASN203      0.2629
    127  OD1       25.9920   -6.1150  -10.1320 O.2   203  ASN203     -0.2716
    128  ND2       27.5700   -5.1850  -11.4030 N.am  203  ASN203     -0.0877
    129  N         25.5140   -2.2970   -3.0180 N.3   205  MET205     -0.1245
    130  CA        24.4690   -2.5380   -2.0440 C.3   205  MET205      0.1570
    131  C         24.8210   -1.8950   -0.7060 C.2   205  MET205      0.2261
    132  O         25.9310   -2.0700   -0.1770 O.2   205  MET205     -0.2867
    133  CB        24.2210   -4.0530   -1.9000 C.3   205  MET205      0.0387
    134  CG        22.7560   -4.4110   -1.6650 C.3   205  MET205      0.0595
    135  SD        22.2640   -6.1500   -1.8490 S.3   205  MET205     -0.1393
    136  CE        23.4440   -6.8120   -0.7230 C.3   205  MET205      0.0692
    137  N         28.6560   -6.3890   -4.8350 N.3   214  ILE214     -0.1231
    138  CA        28.0450   -7.7300   -4.6740 C.3   214  ILE214      0.1692
    139  C         28.1970   -8.6860   -5.8580 C.2   214  ILE214      0.2592
    140  O         27.7810   -9.8380   -5.7730 O.2   214  ILE214     -0.2718
    141  CB        26.5510   -7.6770   -4.2370 C.3   214  ILE214      0.0266
    142  CG1       25.6740   -6.9860   -5.2890 C.3   214  ILE214      0.0019
    143  CG2       26.4020   -7.0120   -2.8800 C.3   214  ILE214      0.0020
    144  CD1       24.1730   -7.0130   -4.9390 C.3   214  ILE214      0.0001
    145  N         28.8050   -8.2350   -6.9470 N.am  215  ASP215     -0.1974
    146  CA        28.9870   -9.1090   -8.1040 C.3   215  ASP215      0.1709
    147  C         30.4070   -9.0830   -8.6580 C.2   215  ASP215      0.2293
    148  O         30.8520   -8.0530   -9.1690 O.2   215  ASP215     -0.2864
    149  CB        27.9880   -8.7590   -9.2160 C.3   215  ASP215      0.1436
    150  CG        27.8460   -9.8740  -10.2540 C.2   215  ASP215      0.3671
    151  OD1       28.8520  -10.5320  -10.5920 O.co2 215  ASP215     -0.2456
    152  OD2       26.7170  -10.0940  -10.7340 O.co2 215  ASP215     -0.2456
@<TRIPOS>BOND
     1    35    36   ar
     2    35    33   ar
     3    36    34   ar
     4    33    32   ar
     5    34    32   ar
     6    32    31    1
     7   119   118   ar
     8    59    60    1
     9    59    58    1
    10   120   118   ar
    11   118   117    1
    12    31    28    1
    13    29    30    2
    14    29    28    1
    15   128   126   am
    16    28    27    1
    17    54    55    2
    18    54    53    1
    19    57    58    1
    20    57    56    1
    21   116   117    1
    22   116   113    1
    23   152   150   ar
    24   151   150   ar
    25   126   127    2
    26   126   125    1
    27   150   149    1
    28    53    56    1
    29    53    52    1
    30    27    24   am
    31   112   113    1
    32    44    42    1
    33   113   114    1
    34    37    38    1
    35   125   122    1
    36   149   146    1
    37   148   147    2
    38    25    24    2
    39    24    23    1
    40   121   114   am
    41   121   122    1
    42   147   146    1
    43    42    41    1
    44   114   115    2
    45   122   123    1
    46    38    41    1
    47    38    39    1
    48   146   145    1
    49    41    43    1
    50    23    26    1
    51    23    22    1
    52    39    40    2
    53   145   139   am
    54   123   124    2
    55    75    74    1
    56    22    16   am
    57   139   140    2
    58   139   138    1
    59    74    73    1
    60   142   144    1
    61   142   141    1
    62    16    17    2
    63    16    15    1
    64    14    15    1
    65   137   138    1
    66    73    72    1
    67   138   141    1
    68    50    49    1
    69    48    47    2
    70    47    46    1
    71    15    18    1
    72   141   143    1
    73    66    65    1
    74    19    18    1
    75    19    21    1
    76    72    69    1
    77    68    69    1
    78    18    20    1
    79    49    46    1
    80    49    51    1
    81    46    45    1
    82   129   130    1
    83    69    70    1
    84    65    67    1
    85    65    62    1
    86    64    63    2
    87   130   133    1
    88   130   131    1
    89   133   134    1
    90   135   134    1
    91   135   136    1
    92    61    62    1
    93    12    11    2
    94    63    62    1
    95    70    71    2
    96    70    76   am
    97    79    78    2
    98   131   132    2
    99    76    77    1
   100    11    10    1
   101   111   110    2
   102   100    99    2
   103    78    77    1
   104    78    85   am
   105   103   101    1
   106   101   102    1
   107   101    98    1
   108    77    80    1
   109    13    10    1
   110    10     9    1
   111   110   109    1
   112    97    98    1
   113    97    87   am
   114    91    93   ar
   115    91    90   ar
   116    93    95   ar
   117    86    85    1
   118    86    87    1
   119    86    89    1
   120    80    81    1
   121    99    98    1
   122    99   104   am
   123    87    88    2
   124   108   109    1
   125   108   106   am
   126     8     6    1
   127    89    90    1
   128    83    82   ar
   129    90    92   ar
   130    95    96    1
   131    95    94   ar
   132    81    82    1
   133   104   105    1
   134   105   106    1
   135   106   107    2
   136    82    84   ar
   137     7     5    1
   138    92    94   ar
   139     6     5    1
   140     5     2    1
   141     4     3    2
   142     2     3    1
   143     2     1    1
