@<TRIPOS>MOLECULE
tmp/2pzlA01.pdb
 118 111 0 0 0
SMALL
GASTEIGER

@<TRIPOS>ATOM
      1  N         54.6090   33.8820   41.0880 N.3   167  ASN167     -0.1240
      2  CA        54.2430   32.5870   40.5180 C.3   167  ASN167      0.1653
      3  C         54.9990   32.3780   39.2090 C.2   167  ASN167      0.2266
      4  O         54.8680   33.1580   38.2730 O.2   167  ASN167     -0.2867
      5  CB        52.7210   32.4620   40.3470 C.3   167  ASN167      0.1155
      6  CG        51.9740   32.5260   41.6920 C.2   167  ASN167      0.2627
      7  OD1       52.0980   31.6220   42.5220 O.2   167  ASN167     -0.2716
      8  ND2       51.2110   33.5960   41.9060 N.am  167  ASN167     -0.0877
      9  N         50.1280   22.7500   37.8750 N.3   175  ILE175     -0.1231
     10  CA        49.2270   23.1440   38.9780 C.3   175  ILE175      0.1692
     11  C         48.8540   24.6370   39.0120 C.2   175  ILE175      0.2593
     12  O         49.5170   25.4640   38.3760 O.2   175  ILE175     -0.2718
     13  CB        49.7660   22.6890   40.3260 C.3   175  ILE175      0.0266
     14  CG1       51.1480   23.3140   40.5970 C.3   175  ILE175      0.0019
     15  CG2       49.8180   21.1480   40.3660 C.3   175  ILE175      0.0020
     16  CD1       51.4140   23.6030   42.0900 C.3   175  ILE175      0.0001
     17  N         47.7850   24.9790   39.7440 N.am  176  GLY176     -0.1943
     18  CA        47.3030   26.3650   39.8470 C.3   176  GLY176      0.1998
     19  C         46.2210   26.6470   38.8150 C.2   176  GLY176      0.2480
     20  O         45.7960   25.7430   38.1170 O.2   176  GLY176     -0.2729
     21  N         45.7910   27.9220   38.6950 N.am  177  PRO177     -0.2726
     22  CA        44.7360   28.4320   37.7870 C.3   177  PRO177      0.1402
     23  C         45.0280   28.4090   36.2630 C.2   177  PRO177      0.2269
     24  O         44.0950   28.3490   35.4540 O.2   177  PRO177     -0.2865
     25  CB        44.6040   29.8960   38.2150 C.3   177  PRO177      0.0296
     26  CG        45.9740   30.2560   38.7660 C.3   177  PRO177      0.0237
     27  CD        46.3680   29.0020   39.5250 C.3   177  PRO177      0.0939
     28  N         44.5260   24.7580   35.0550 N.3   180  THR180     -0.1203
     29  CA        43.1570   24.4680   35.4280 C.3   180  THR180      0.1994
     30  C         42.1280   25.1720   34.5210 C.2   180  THR180      0.2617
     31  O         41.1600   24.5630   34.1300 O.2   180  THR180     -0.2717
     32  CB        42.8990   24.7840   36.9650 C.3   180  THR180      0.1784
     33  OG1       43.7960   24.0140   37.7900 O.3   180  THR180     -0.2211
     34  CG2       41.4550   24.4510   37.3550 C.3   180  THR180      0.0376
     35  N         42.3270   26.4410   34.1840 N.am  181  PHE181     -0.1975
     36  CA        41.4330   27.0990   33.2350 C.3   181  PHE181      0.1639
     37  C         41.6140   26.5810   31.7950 C.2   181  PHE181      0.2290
     38  O         40.6340   26.3870   31.0550 O.2   181  PHE181     -0.2864
     39  CB        41.6200   28.6280   33.2610 C.3   181  PHE181      0.0560
     40  CG        41.2620   29.2740   34.5770 C.ar  181  PHE181     -0.0200
     41  CD1       40.2560   28.7470   35.3910 C.ar  181  PHE181     -0.0042
     42  CD2       41.9150   30.4380   34.9950 C.ar  181  PHE181     -0.0042
     43  CE1       39.9220   29.3790   36.6260 C.ar  181  PHE181     -0.0003
     44  CE2       41.5980   31.0450   36.2350 C.ar  181  PHE181     -0.0003
     45  CZ        40.5950   30.5210   37.0310 C.ar  181  PHE181     -0.0000
     46  N         39.8450   22.9490   31.6570 N.3   184  ARG184     -0.1245
     47  CA        38.4230   22.9820   31.9410 C.3   184  ARG184      0.1563
     48  C         37.6660   23.6930   30.8570 C.2   184  ARG184      0.2260
     49  O         36.5620   23.2770   30.5100 O.2   184  ARG184     -0.2867
     50  CB        38.1410   23.6770   33.2900 C.3   184  ARG184      0.0307
     51  CG        38.6010   22.8870   34.4920 C.3   184  ARG184      0.0489
     52  CD        38.2390   23.6190   35.7990 C.3   184  ARG184      0.2205
     53  NE        36.8050   23.5830   36.0420 N.pl3 184  ARG184     -0.0865
     54  CZ        36.1650   22.5320   36.5390 C.cat 184  ARG184      0.5346
     55  NH1       36.8460   21.4270   36.8660 N.pl3 184  ARG184      0.1354
     56  NH2       34.8470   22.5840   36.7020 N.pl3 184  ARG184      0.1354
     57  N         35.5940   28.6250   38.1870 N.3   192  PHE192     -0.1241
     58  CA        35.4160   29.6530   39.2190 C.3   192  PHE192      0.1605
     59  C         36.7210   30.4710   39.3970 C.2   192  PHE192      0.2264
     60  O         37.8030   29.9030   39.4870 O.2   192  PHE192     -0.2867
     61  CB        34.9810   29.0000   40.5660 C.3   192  PHE192      0.0534
     62  CG        36.1450   28.6560   41.4940 C.ar  192  PHE192     -0.0203
     63  CD1       36.9390   27.5300   41.2600 C.ar  192  PHE192     -0.0042
     64  CD2       36.4520   29.4830   42.5880 C.ar  192  PHE192     -0.0042
     65  CE1       38.0360   27.2300   42.0960 C.ar  192  PHE192     -0.0003
     66  CE2       37.5420   29.1950   43.4400 C.ar  192  PHE192     -0.0003
     67  CZ        38.3370   28.0660   43.1950 C.ar  192  PHE192     -0.0000
     68  N         38.3730   32.9970   42.1370 N.3   194  SER194     -0.1217
     69  CA        38.3060   33.7390   43.3910 C.3   194  SER194      0.1889
     70  C         38.6740   35.2010   43.1580 C.2   194  SER194      0.2288
     71  O         39.3060   35.5720   42.1330 O.2   194  SER194     -0.2866
     72  CB        39.1600   33.1170   44.4850 C.3   194  SER194      0.2089
     73  OG        40.3530   32.6070   43.9330 O.3   194  SER194     -0.2183
     74  N         40.9180   37.1880   43.9950 N.3   196  THR196     -0.1218
     75  CA        42.2840   37.4050   44.4540 C.3   196  THR196      0.1862
     76  C         43.2120   37.9910   43.3900 C.2   196  THR196      0.2287
     77  O         42.9300   37.9050   42.1840 O.2   196  THR196     -0.2866
     78  CB        42.9020   36.1550   45.1030 C.3   196  THR196      0.1770
     79  OG1       42.9910   35.1070   44.1420 O.3   196  THR196     -0.2211
     80  CG2       42.0970   35.7060   46.3620 C.3   196  THR196      0.0375
     81  N         47.4150   38.2660   42.2980 N.3   198  ARG198     -0.1245
     82  CA        48.6700   37.5300   42.3750 C.3   198  ARG198      0.1563
     83  C         49.6870   38.1310   41.4080 C.2   198  ARG198      0.2260
     84  O         49.3340   38.9430   40.5650 O.2   198  ARG198     -0.2867
     85  CB        48.4460   36.0310   42.0660 C.3   198  ARG198      0.0307
     86  CG        47.5890   35.2790   43.1250 C.3   198  ARG198      0.0489
     87  CD        48.2670   35.2760   44.4900 C.3   198  ARG198      0.2205
     88  NE        47.5640   34.5750   45.5660 N.pl3 198  ARG198     -0.0865
     89  CZ        46.7390   35.1660   46.4470 C.cat 198  ARG198      0.5346
     90  NH1       46.4490   36.4860   46.3740 N.pl3 198  ARG198      0.1354
     91  NH2       46.1720   34.4340   47.4000 N.pl3 198  ARG198      0.1354
     92  N         52.9260   37.0120   38.5960 N.3   200  PHE200     -0.1241
     93  CA        53.3140   35.9460   37.7080 C.3   200  PHE200      0.1605
     94  C         54.6220   36.3290   37.0230 C.2   200  PHE200      0.2264
     95  O         54.8170   37.4870   36.6150 O.2   200  PHE200     -0.2867
     96  CB        52.2070   35.6740   36.6890 C.3   200  PHE200      0.0534
     97  CG        50.9090   35.2290   37.3070 C.ar  200  PHE200     -0.0203
     98  CD1       49.9550   36.1570   37.6860 C.ar  200  PHE200     -0.0042
     99  CD2       50.6400   33.8580   37.4910 C.ar  200  PHE200     -0.0042
    100  CE1       48.7580   35.7510   38.2550 C.ar  200  PHE200     -0.0003
    101  CE2       49.4460   33.4350   38.0750 C.ar  200  PHE200     -0.0003
    102  CZ        48.5020   34.3830   38.4570 C.ar  200  PHE200     -0.0000
    103  N         42.8550   36.7650   39.3610 N.3   233  ILE233     -0.1245
    104  CA        42.5940   35.4810   38.7190 C.3   233  ILE233      0.1561
    105  C         41.6010   35.6400   37.5460 C.2   233  ILE233      0.2260
    106  O         41.6580   34.8870   36.5520 O.2   233  ILE233     -0.2867
    107  CB        42.1780   34.4400   39.7450 C.3   233  ILE233      0.0252
    108  CG1       43.2790   34.3290   40.8110 C.3   233  ILE233      0.0019
    109  CG2       41.9650   33.1180   39.1120 C.3   233  ILE233      0.0019
    110  CD1       44.6950   34.0890   40.2360 C.3   233  ILE233      0.0001
    111  N         42.5370   32.2840   52.1150 N.3   261  ASP261     -0.1239
    112  CA        42.9770   32.7250   50.7720 C.3   261  ASP261      0.1674
    113  C         43.3400   34.2300   50.8580 C.2   261  ASP261      0.2266
    114  O         42.4480   35.1080   50.8450 O.2   261  ASP261     -0.2867
    115  CB        41.8650   32.4340   49.7310 C.3   261  ASP261      0.1410
    116  CG        42.3910   32.2370   48.2540 C.2   261  ASP261      0.3668
    117  OD1       43.6270   32.1380   47.9860 O.co2 261  ASP261     -0.2456
    118  OD2       41.5240   32.1480   47.3380 O.co2 261  ASP261     -0.2456
@<TRIPOS>BOND
     1    49    48    2
     2    48    47    1
     3    38    37    2
     4    46    47    1
     5    37    36    1
     6    47    50    1
     7    36    39    1
     8    36    35    1
     9    39    40    1
    10    50    51    1
    11    31    30    2
    12    35    30   am
    13    51    52    1
    14    30    29    1
    15    40    42   ar
    16    40    41   ar
    17    42    44   ar
    18    28    29    1
    19    41    43   ar
    20    29    32    1
    21    24    23    2
    22    52    53    1
    23    53    54    2
    24    44    45   ar
    25    23    22    1
    26    54    56    1
    27    54    55    1
    28   106   105    2
    29    95    94    2
    30    43    45   ar
    31    96    97    1
    32    96    93    1
    33    32    34    1
    34    32    33    1
    35    94    93    1
    36    97    99   ar
    37    97    98   ar
    38    99   101   ar
    39   105   104    1
    40    98   100   ar
    41    93    92    1
    42    22    25    1
    43    22    21    1
    44     9    10    1
    45   101   102   ar
    46    20    19    2
    47    57    58    1
    48    25    26    1
    49   100   102   ar
    50     4     3    2
    51    12    11    2
    52    21    19   am
    53    21    27    1
    54   104   103    1
    55   104   107    1
    56    26    27    1
    57    19    18    1
    58    10    11    1
    59    10    13    1
    60    11    17   am
    61   109   107    1
    62     3     2    1
    63    58    59    1
    64    58    61    1
    65    59    60    2
    66    17    18    1
    67   107   108    1
    68   110   108    1
    69    13    15    1
    70    13    14    1
    71     5     2    1
    72     5     6    1
    73     2     1    1
    74    84    83    2
    75    61    62    1
    76    14    16    1
    77    63    62   ar
    78    63    65   ar
    79    83    82    1
    80    62    64   ar
    81     6     8   am
    82     6     7    2
    83    85    82    1
    84    85    86    1
    85    65    67   ar
    86    71    70    2
    87    68    69    1
    88    77    76    2
    89    81    82    1
    90    64    66   ar
    91    86    87    1
    92    70    69    1
    93    67    66   ar
    94    76    75    1
    95    69    72    1
    96    73    72    1
    97    74    75    1
    98    79    78    1
    99    75    78    1
   100    87    88    1
   101    78    80    1
   102    88    89    2
   103    90    89    1
   104    89    91    1
   105   118   116   ar
   106   117   116   ar
   107   116   115    1
   108   115   112    1
   109   112   113    1
   110   112   111    1
   111   114   113    2
