@<TRIPOS>MOLECULE
tmp/2pzmA01.pdb
 121 115 0 0 0
SMALL
GASTEIGER

@<TRIPOS>ATOM
      1  N         -4.0250   56.6260  -29.8010 N.3   125  LEU125     -0.1245
      2  CA        -3.9490   58.0730  -30.1370 C.3   125  LEU125      0.1561
      3  C         -2.8920   58.8120  -29.3120 C.2   125  LEU125      0.2260
      4  O         -2.3920   59.8660  -29.7390 O.2   125  LEU125     -0.2867
      5  CB        -5.3310   58.7310  -29.9720 C.3   125  LEU125      0.0270
      6  CG        -6.3860   58.1680  -30.9590 C.3   125  LEU125      0.0019
      7  CD1       -7.7460   58.8140  -30.6300 C.3   125  LEU125      0.0001
      8  CD2       -6.0410   58.5760  -32.3130 C.3   125  LEU125      0.0001
      9  N         -7.0130   47.4870  -31.3530 N.3   172  ASN172     -0.1240
     10  CA        -8.4500   47.5810  -31.4440 C.3   172  ASN172      0.1653
     11  C         -9.0310   46.2580  -30.9730 C.2   172  ASN172      0.2266
     12  O         -8.8620   45.2310  -31.6400 O.2   172  ASN172     -0.2867
     13  CB        -8.8560   47.8440  -32.8950 C.3   172  ASN172      0.1155
     14  CG        -8.3150   49.1700  -33.4040 C.2   172  ASN172      0.2627
     15  OD1       -8.7700   50.2280  -32.9820 O.2   172  ASN172     -0.2716
     16  ND2       -7.3150   49.1190  -34.2610 N.am  172  ASN172     -0.0877
     17  N        -19.2480   49.5900  -33.3900 N.3   180  ILE180     -0.1231
     18  CA       -18.7310   50.6750  -34.2230 C.3   180  ILE180      0.1692
     19  C        -17.4910   50.2280  -34.9850 C.2   180  ILE180      0.2593
     20  O        -16.9150   49.1880  -34.6710 O.2   180  ILE180     -0.2718
     21  CB       -18.3480   51.9380  -33.3670 C.3   180  ILE180      0.0266
     22  CG1      -17.2660   51.5750  -32.3410 C.3   180  ILE180      0.0019
     23  CG2      -19.6040   52.4900  -32.6640 C.3   180  ILE180      0.0020
     24  CD1      -16.5010   52.7560  -31.7290 C.3   180  ILE180      0.0001
     25  N        -17.0710   51.0340  -35.9600 N.am  181  GLY181     -0.1943
     26  CA       -15.8520   50.7850  -36.6870 C.3   181  GLY181      0.1998
     27  C        -16.1160   50.0290  -37.9690 C.2   181  GLY181      0.2480
     28  O        -17.2850   49.7470  -38.2990 O.2   181  GLY181     -0.2729
     29  N        -15.0360   49.6640  -38.6840 N.am  182  PRO182     -0.2726
     30  CA       -15.1530   49.0250  -39.9920 C.3   182  PRO182      0.1402
     31  C        -15.7760   47.6250  -39.9460 C.2   182  PRO182      0.2269
     32  O        -16.4060   47.2180  -40.9210 O.2   182  PRO182     -0.2865
     33  CB       -13.6960   48.9420  -40.4970 C.3   182  PRO182      0.0296
     34  CG       -12.8440   49.0880  -39.2650 C.3   182  PRO182      0.0237
     35  CD       -13.6340   49.8200  -38.2400 C.3   182  PRO182      0.0939
     36  N        -19.5740   47.8540  -39.7710 N.3   185  THR185     -0.1203
     37  CA       -19.9190   48.6120  -40.9720 C.3   185  THR185      0.1994
     38  C        -19.9030   47.6970  -42.1970 C.2   185  THR185      0.2617
     39  O        -20.9310   47.5570  -42.8700 O.2   185  THR185     -0.2717
     40  CB       -19.0380   49.8690  -41.1570 C.3   185  THR185      0.1784
     41  OG1      -19.2780   50.7610  -40.0600 O.3   185  THR185     -0.2211
     42  CG2      -19.3990   50.5820  -42.4360 C.3   185  THR185      0.0376
     43  N        -18.7700   47.0440  -42.4590 N.am  186  PHE186     -0.1975
     44  CA       -18.6700   46.0880  -43.5600 C.3   186  PHE186      0.1639
     45  C        -19.6680   44.9290  -43.4140 C.2   186  PHE186      0.2290
     46  O        -20.1820   44.4260  -44.4100 O.2   186  PHE186     -0.2864
     47  CB       -17.2490   45.5320  -43.7070 C.3   186  PHE186      0.0560
     48  CG       -16.2060   46.5670  -43.9370 C.ar  186  PHE186     -0.0200
     49  CD1      -16.5170   47.7620  -44.5730 C.ar  186  PHE186     -0.0042
     50  CD2      -14.8910   46.3340  -43.5530 C.ar  186  PHE186     -0.0042
     51  CE1      -15.5530   48.7070  -44.7960 C.ar  186  PHE186     -0.0003
     52  CE2      -13.9230   47.2710  -43.7860 C.ar  186  PHE186     -0.0003
     53  CZ       -14.2470   48.4670  -44.4090 C.ar  186  PHE186     -0.0000
     54  N        -16.3480   51.4160  -48.4960 N.3   197  PHE197     -0.1227
     55  CA       -15.0050   51.9050  -48.8100 C.3   197  PHE197      0.1736
     56  C        -14.0670   51.5330  -47.6500 C.2   197  PHE197      0.2596
     57  O        -14.5150   51.2530  -46.5110 O.2   197  PHE197     -0.2718
     58  CB       -14.9850   53.4250  -49.1170 C.3   197  PHE197      0.0547
     59  CG       -15.1650   54.2930  -47.9020 C.ar  197  PHE197     -0.0202
     60  CD1      -16.4490   54.6520  -47.4640 C.ar  197  PHE197     -0.0042
     61  CD2      -14.0560   54.7250  -47.1640 C.ar  197  PHE197     -0.0042
     62  CE1      -16.6310   55.4480  -46.3190 C.ar  197  PHE197     -0.0003
     63  CE2      -14.2220   55.5200  -46.0140 C.ar  197  PHE197     -0.0003
     64  CZ       -15.5120   55.8700  -45.5880 C.ar  197  PHE197     -0.0000
     65  N        -12.7770   51.4850  -47.9810 N.am  198  CYS198     -0.1956
     66  CA       -11.7220   51.2130  -47.0410 C.3   198  CYS198      0.1843
     67  C        -10.7600   52.3910  -47.0890 C.2   198  CYS198      0.2626
     68  O        -10.3530   52.7650  -48.1860 O.2   198  CYS198     -0.2714
     69  CB       -10.9010   50.0030  -47.5030 C.3   198  CYS198      0.0997
     70  SG       -11.7580   48.4290  -47.5110 S.3   198  CYS198     -0.0797
     71  N        -10.3900   52.9610  -45.9400 N.am  199  SER199     -0.1950
     72  CA        -9.2360   53.8660  -45.8810 C.3   199  SER199      0.1924
     73  C         -7.9800   53.0670  -46.1670 C.2   199  SER199      0.2314
     74  O         -7.9010   51.8850  -45.7850 O.2   199  SER199     -0.2863
     75  CB        -9.1210   54.5060  -44.4990 C.3   199  SER199      0.2116
     76  OG       -10.1130   55.4980  -44.3420 O.3   199  SER199     -0.2180
     77  N         -5.3520   52.4320  -44.7420 N.3   201  THR201     -0.1218
     78  CA        -4.7210   52.4930  -43.4040 C.3   201  THR201      0.1862
     79  C         -4.4620   51.0780  -42.8610 C.2   201  THR201      0.2287
     80  O         -5.0590   50.1080  -43.3470 O.2   201  THR201     -0.2866
     81  CB        -5.5690   53.2720  -42.3720 C.3   201  THR201      0.1770
     82  OG1       -6.8530   52.6590  -42.2590 O.3   201  THR201     -0.2211
     83  CG2       -5.7590   54.7370  -42.7810 C.3   201  THR201      0.0375
     84  N         -3.9470   48.7990  -39.1570 N.3   203  ARG203     -0.1245
     85  CA        -4.2760   48.7900  -37.7230 C.3   203  ARG203      0.1563
     86  C         -3.9230   47.4280  -37.1420 C.2   203  ARG203      0.2260
     87  O         -3.7150   46.5070  -37.9010 O.2   203  ARG203     -0.2867
     88  CB        -5.7700   49.0560  -37.5250 C.3   203  ARG203      0.0307
     89  CG        -6.2390   50.5080  -37.8410 C.3   203  ARG203      0.0489
     90  CD        -5.4890   51.5110  -37.0250 C.3   203  ARG203      0.2205
     91  NE        -5.8860   52.9130  -37.2250 N.pl3 203  ARG203     -0.0865
     92  CZ        -5.2660   53.7830  -38.0190 C.cat 203  ARG203      0.5346
     93  NH1       -4.2000   53.4020  -38.7450 N.pl3 203  ARG203      0.1354
     94  NH2       -5.7240   55.0380  -38.1000 N.pl3 203  ARG203      0.1354
     95  N         -5.5320   44.3800  -34.3900 N.3   205  PHE205     -0.1241
     96  CA        -6.8290   43.9220  -33.8820 C.3   205  PHE205      0.1605
     97  C         -6.5850   42.8190  -32.8710 C.2   205  PHE205      0.2264
     98  O         -5.7230   41.9510  -33.1040 O.2   205  PHE205     -0.2867
     99  CB        -7.6910   43.3840  -35.0410 C.3   205  PHE205      0.0534
    100  CG        -8.1080   44.4620  -36.0060 C.ar  205  PHE205     -0.0203
    101  CD1       -9.2650   45.1940  -35.7830 C.ar  205  PHE205     -0.0042
    102  CD2       -7.3050   44.7730  -37.1150 C.ar  205  PHE205     -0.0042
    103  CE1       -9.6260   46.2450  -36.6670 C.ar  205  PHE205     -0.0003
    104  CE2       -7.6680   45.7780  -38.0150 C.ar  205  PHE205     -0.0003
    105  CZ        -8.8230   46.5150  -37.7900 C.ar  205  PHE205     -0.0000
    106  N         -7.2560   47.9250  -43.5110 N.3   238  ILE238     -0.1245
    107  CA        -8.7140   47.8940  -43.5420 C.3   238  ILE238      0.1561
    108  C         -9.2610   46.9890  -44.6780 C.2   238  ILE238      0.2260
    109  O        -10.2560   46.2770  -44.4760 O.2   238  ILE238     -0.2867
    110  CB        -9.3370   49.3350  -43.5760 C.3   238  ILE238      0.0252
    111  CG1       -8.8850   50.1720  -42.3680 C.3   238  ILE238      0.0019
    112  CG2      -10.8690   49.2680  -43.5980 C.3   238  ILE238      0.0019
    113  CD1       -8.7120   49.3910  -40.9920 C.3   238  ILE238      0.0001
    114  N         -6.2530   61.0360  -39.9160 N.3   266  ASP266     -0.1239
    115  CA        -6.3190   59.5860  -39.8820 C.3   266  ASP266      0.1674
    116  C         -4.9010   59.0140  -40.0980 C.2   266  ASP266      0.2266
    117  O         -4.3970   58.9270  -41.2440 O.2   266  ASP266     -0.2867
    118  CB        -7.3430   59.1360  -40.9480 C.3   266  ASP266      0.1410
    119  CG        -7.7020   57.6520  -40.8720 C.2   266  ASP266      0.3668
    120  OD1       -7.3190   56.9600  -39.9030 O.co2 266  ASP266     -0.2456
    121  OD2       -8.3660   57.1810  -41.8240 O.co2 266  ASP266     -0.2456
@<TRIPOS>BOND
     1    58    55    1
     2    58    59    1
     3    55    54    1
     4    55    56    1
     5    68    67    2
     6    65    56   am
     7    65    66    1
     8    59    60   ar
     9    59    61   ar
    10    56    57    2
    11    70    69    1
    12    69    66    1
    13    60    62   ar
    14    61    63   ar
    15    67    66    1
    16    67    71   am
    17    62    64   ar
    18    73    72    1
    19    73    74    2
    20    63    64   ar
    21    71    72    1
    22    72    75    1
    23    51    49   ar
    24    51    53   ar
    25    77    78    1
    26   108   109    2
    27   108   107    1
    28    49    48   ar
    29    75    76    1
    30    46    45    2
    31    53    52   ar
    32    48    47    1
    33    48    50   ar
    34    52    50   ar
    35    47    44    1
    36   112   110    1
    37   110   107    1
    38   110   111    1
    39    44    45    1
    40    44    43    1
    41   107   106    1
    42    78    79    1
    43    78    81    1
    44    80    79    2
    45    39    38    2
    46    83    81    1
    47    43    38   am
    48    42    40    1
    49    81    82    1
    50   111   113    1
    51    38    37    1
    52   121   119   ar
    53   117   116    2
    54    40    37    1
    55    40    41    1
    56    37    36    1
    57   118   119    1
    58   118   115    1
    59    32    31    2
    60   119   120   ar
    61    33    30    1
    62    33    34    1
    63   116   115    1
    64    30    31    1
    65    30    29    1
    66   114   115    1
    67    34    35    1
    68    84    85    1
    69    93    92    1
    70    29    35    1
    71    29    27   am
    72    28    27    2
    73    94    92    1
    74    92    91    2
    75   104   105   ar
    76   104   102   ar
    77    27    26    1
    78    87    86    2
    79    89    88    1
    80    89    90    1
    81   105   103   ar
    82    85    88    1
    83    85    86    1
    84    91    90    1
    85   102   100   ar
    86    26    25    1
    87   103   101   ar
    88   100   101   ar
    89   100    99    1
    90    25    19   am
    91    99    96    1
    92    19    20    2
    93    19    18    1
    94    95    96    1
    95    16    14   am
    96    18    17    1
    97    18    21    1
    98    96    97    1
    99    14    15    2
   100    14    13    1
   101    21    23    1
   102    21    22    1
   103    98    97    2
   104    13    10    1
   105    22    24    1
   106     8     6    1
   107    12    11    2
   108    10     9    1
   109    10    11    1
   110     6     7    1
   111     6     5    1
   112     2     5    1
   113     2     1    1
   114     2     3    1
   115     4     3    2
