@<TRIPOS>MOLECULE
tmp/2pzvB00.pdb
 129 122 0 0 0
SMALL
GASTEIGER

@<TRIPOS>ATOM
      1  N         -3.3810  -25.9140   -3.8490 N.3    15  TYR15      -0.1241
      2  CA        -2.8760  -26.0530   -2.4750 C.3    15  TYR15       0.1605
      3  C         -4.0270  -25.9750   -1.4810 C.2    15  TYR15       0.2264
      4  O         -4.1530  -26.8060   -0.5530 O.2    15  TYR15      -0.2867
      5  CB        -1.8220  -24.9960   -2.1920 C.3    15  TYR15       0.0534
      6  CG        -1.4110  -24.9710   -0.7620 C.ar   15  TYR15      -0.0201
      7  CD1       -0.2910  -25.7450   -0.2290 C.ar   15  TYR15      -0.0009
      8  CD2       -2.0730  -24.0700    0.1220 C.ar   15  TYR15      -0.0009
      9  CE1       -0.0380  -25.6740    1.0950 C.ar   15  TYR15       0.0417
     10  CE2       -1.6980  -23.9610    1.4380 C.ar   15  TYR15       0.0417
     11  CZ        -0.6870  -24.7680    1.9100 C.ar   15  TYR15       0.1957
     12  OH        -0.3670  -24.7080    3.2690 O.3    15  TYR15      -0.2866
     13  N         -5.2470  -28.7850    1.1880 N.3    19  VAL19      -0.1245
     14  CA        -5.3780  -28.5900    2.6310 C.3    19  VAL19       0.1561
     15  C         -6.7970  -28.9290    3.1040 C.2    19  VAL19       0.2260
     16  O         -6.9940  -29.5830    4.1340 O.2    19  VAL19      -0.2867
     17  CB        -4.9120  -27.1590    2.9960 C.3    19  VAL19       0.0252
     18  CG1       -5.3190  -26.8300    4.4530 C.3    19  VAL19       0.0019
     19  CG2       -3.4570  -27.0000    2.7290 C.3    19  VAL19       0.0019
     20  N          5.6950  -20.5710    9.2190 N.3    39  ASN39      -0.1240
     21  CA         4.2340  -20.6420    9.5360 C.3    39  ASN39       0.1653
     22  C          3.9680  -20.7700   11.0460 C.2    39  ASN39       0.2266
     23  O          4.0970  -21.8890   11.5720 O.2    39  ASN39      -0.2867
     24  CB         3.5610  -21.8210    8.7680 C.3    39  ASN39       0.1155
     25  CG         2.0140  -21.8480    8.9400 C.2    39  ASN39       0.2627
     26  OD1        1.4860  -21.1960    9.8230 O.2    39  ASN39      -0.2716
     27  ND2        1.3000  -22.6150    8.0680 N.am   39  ASN39      -0.0877
     28  N          4.9290  -31.1420    9.8870 N.3    55  PHE55      -0.1227
     29  CA         4.1150  -29.9690   10.1790 C.3    55  PHE55       0.1736
     30  C          2.6410  -30.1500    9.7260 C.2    55  PHE55       0.2595
     31  O          1.7060  -29.8960   10.4960 O.2    55  PHE55      -0.2718
     32  CB         4.7690  -28.7650    9.5180 C.3    55  PHE55       0.0547
     33  CG         3.9040  -27.5390    9.4880 C.ar   55  PHE55      -0.0202
     34  CD1        3.9600  -26.6760   10.5410 C.ar   55  PHE55      -0.0042
     35  CD2        3.1530  -27.2160    8.3750 C.ar   55  PHE55      -0.0042
     36  CE1        3.1640  -25.5090   10.5450 C.ar   55  PHE55      -0.0003
     37  CE2        2.3680  -26.0420    8.3760 C.ar   55  PHE55      -0.0003
     38  CZ         2.3830  -25.2180    9.4680 C.ar   55  PHE55      -0.0000
     39  N          2.4090  -30.5930    8.4880 N.am   56  TYR56      -0.1976
     40  CA         1.0170  -30.7360    8.0170 C.3    56  TYR56       0.1639
     41  C          0.3560  -31.8980    8.7340 C.2    56  TYR56       0.2290
     42  O         -0.8590  -31.8240    8.9630 O.2    56  TYR56      -0.2864
     43  CB         1.0440  -30.9490    6.4840 C.3    56  TYR56       0.0560
     44  CG         1.1910  -29.6140    5.8250 C.ar   56  TYR56      -0.0198
     45  CD1        0.1060  -28.7070    5.7250 C.ar   56  TYR56      -0.0009
     46  CD2        2.3690  -29.2780    5.2350 C.ar   56  TYR56      -0.0009
     47  CE1        0.2900  -27.5010    5.1040 C.ar   56  TYR56       0.0417
     48  CE2        2.5470  -28.0460    4.6110 C.ar   56  TYR56       0.0417
     49  CZ         1.5090  -27.1730    4.5490 C.ar   56  TYR56       0.1957
     50  OH         1.7260  -25.9490    3.9760 O.3    56  TYR56      -0.2866
     51  N         -2.9640  -31.1290   10.3420 N.3    60  LEU60      -0.1245
     52  CA        -4.0490  -31.8610    9.7020 C.3    60  LEU60       0.1561
     53  C         -3.9920  -33.3580   10.0840 C.2    60  LEU60       0.2260
     54  O         -4.3410  -34.2590    9.2600 O.2    60  LEU60      -0.2867
     55  CB        -4.0300  -31.6740    8.1670 C.3    60  LEU60       0.0270
     56  CG        -3.6600  -30.3410    7.5350 C.3    60  LEU60       0.0019
     57  CD1       -3.4010  -30.5340    6.0400 C.3    60  LEU60       0.0001
     58  CD2       -4.7710  -29.2780    7.7420 C.3    60  LEU60       0.0001
     59  N         -7.0830  -16.8120    2.9540 N.3    82  PHE82      -0.1241
     60  CA        -7.9700  -17.9540    3.1410 C.3    82  PHE82       0.1605
     61  C         -8.3120  -18.0850    4.5920 C.2    82  PHE82       0.2264
     62  O         -7.7570  -17.3850    5.4820 O.2    82  PHE82      -0.2867
     63  CB        -7.3110  -19.2830    2.5980 C.3    82  PHE82       0.0534
     64  CG        -6.0090  -19.6960    3.2030 C.ar   82  PHE82      -0.0203
     65  CD1       -4.8560  -19.0350    2.8620 C.ar   82  PHE82      -0.0042
     66  CD2       -5.9570  -20.7060    4.1160 C.ar   82  PHE82      -0.0042
     67  CE1       -3.6210  -19.4310    3.3670 C.ar   82  PHE82      -0.0003
     68  CE2       -4.7540  -21.1700    4.6390 C.ar   82  PHE82      -0.0003
     69  CZ        -3.5460  -20.5270    4.2390 C.ar   82  PHE82      -0.0000
     70  N         -9.0220  -21.1560    7.5990 N.3    84  VAL84      -0.1245
     71  CA        -8.9650  -22.5730    7.9600 C.3    84  VAL84       0.1561
     72  C         -9.8830  -22.7460    9.1580 C.2    84  VAL84       0.2260
     73  O         -9.8810  -21.9400   10.0970 O.2    84  VAL84      -0.2867
     74  CB        -7.5480  -22.9390    8.3900 C.3    84  VAL84       0.0252
     75  CG1       -7.4340  -24.3890    8.8550 C.3    84  VAL84       0.0019
     76  CG2       -6.5510  -22.6730    7.2550 C.3    84  VAL84       0.0019
     77  N        -11.1190  -25.3740   12.1260 N.3    86  MET86      -0.1245
     78  CA       -10.6610  -26.5980   12.7730 C.3    86  MET86       0.1570
     79  C        -11.3550  -26.7240   14.1250 C.2    86  MET86       0.2261
     80  O        -12.1560  -25.8750   14.5000 O.2    86  MET86      -0.2867
     81  CB        -9.1540  -26.5340   12.9490 C.3    86  MET86       0.0387
     82  CG        -8.7440  -25.4230   13.9020 C.3    86  MET86       0.0595
     83  SD        -8.3520  -23.9070   13.0300 S.3    86  MET86      -0.1393
     84  CE        -6.6340  -24.2880   12.6750 C.3    86  MET86       0.0692
     85  N         -9.2020  -19.6740   11.5650 N.3    95  LEU95      -0.1245
     86  CA        -8.0060  -18.8470   11.4730 C.3    95  LEU95       0.1561
     87  C         -7.9790  -18.2210   10.0880 C.2    95  LEU95       0.2260
     88  O         -8.0810  -18.9290    9.1060 O.2    95  LEU95      -0.2867
     89  CB        -6.7930  -19.7510   11.6210 C.3    95  LEU95       0.0270
     90  CG        -5.4790  -18.9750   11.5890 C.3    95  LEU95       0.0019
     91  CD1       -5.3540  -17.9920   12.7450 C.3    95  LEU95       0.0001
     92  CD2       -4.3670  -20.0400   11.6030 C.3    95  LEU95       0.0001
     93  N         -5.7550  -16.4180    7.2870 N.3    97  VAL97      -0.1245
     94  CA        -4.2900  -16.4600    6.9810 C.3    97  VAL97       0.1561
     95  C         -4.0790  -15.8660    5.6270 C.2    97  VAL97       0.2260
     96  O         -4.9760  -15.9350    4.7500 O.2    97  VAL97      -0.2867
     97  CB        -3.8350  -17.9890    6.9160 C.3    97  VAL97       0.0252
     98  CG1       -2.3800  -18.0930    6.6670 C.3    97  VAL97       0.0019
     99  CG2       -4.1710  -18.7260    8.2160 C.3    97  VAL97       0.0019
    100  N         -1.0640  -16.6020    2.7570 N.3    99  ASP99      -0.1239
    101  CA         0.1850  -17.2390    2.4290 C.3    99  ASP99       0.1674
    102  C          0.7680  -16.5420    1.2270 C.2    99  ASP99       0.2266
    103  O          0.0410  -16.2280    0.2500 O.2    99  ASP99      -0.2867
    104  CB        -0.1060  -18.7080    1.9620 C.3    99  ASP99       0.1410
    105  CG        -0.2670  -19.6730    3.0970 C.2    99  ASP99       0.3668
    106  OD1       -0.1560  -19.2880    4.2500 O.co2  99  ASP99      -0.2456
    107  OD2       -0.5280  -20.8720    2.8180 O.co2  99  ASP99      -0.2456
    108  N          7.5270  -20.7180    1.4100 N.3   112  MET112     -0.1245
    109  CA         6.1720  -20.3470    1.8370 C.3   112  MET112      0.1570
    110  C          6.2650  -19.5020    3.1170 C.2   112  MET112      0.2261
    111  O          6.8800  -19.9560    4.1180 O.2   112  MET112     -0.2867
    112  CB         5.3380  -21.5670    2.1560 C.3   112  MET112      0.0387
    113  CG         3.9300  -21.0840    2.3070 C.3   112  MET112      0.0595
    114  SD         3.2710  -20.8340    3.9560 S.3   112  MET112     -0.1393
    115  CE         2.8020  -22.5540    4.1800 C.3   112  MET112      0.0692
    116  N         -0.1620  -14.5660    9.8950 N.3   116  TRP116     -0.1241
    117  CA        -1.2920  -14.6140   10.8080 C.3   116  TRP116      0.1605
    118  C         -0.7740  -14.4920   12.2110 C.2   116  TRP116      0.2264
    119  O          0.4100  -14.7470   12.4370 O.2   116  TRP116     -0.2867
    120  CB        -2.1230  -15.9030   10.7120 C.3   116  TRP116      0.0550
    121  CG        -1.3310  -17.1820   11.0500 C.ar  116  TRP116      0.0003
    122  CD1       -0.6260  -17.9710   10.1800 C.ar  116  TRP116      0.0946
    123  CD2       -1.2840  -17.8590   12.3080 C.ar  116  TRP116      0.0152
    124  NE1       -0.1050  -19.0850   10.8120 N.ar  116  TRP116     -0.2442
    125  CE2       -0.4870  -19.0360   12.1280 C.ar  116  TRP116      0.0810
    126  CE3       -1.8460  -17.5970   13.5670 C.ar  116  TRP116      0.0012
    127  CZ2       -0.2170  -19.9320   13.1870 C.ar  116  TRP116      0.0191
    128  CZ3       -1.5820  -18.4960   14.6300 C.ar  116  TRP116      0.0001
    129  CH2       -0.7780  -19.6380   14.4260 C.ar  116  TRP116      0.0015
@<TRIPOS>BOND
     1     1     2    1
     2     2     5    1
     3     2     3    1
     4     5     6    1
     5     3     4    2
     6     6     7   ar
     7     6     8   ar
     8     7     9   ar
     9     8    10   ar
    10   103   102    2
    11     9    11   ar
    12    13    14    1
    13   102   101    1
    14   108   109    1
    15    10    11   ar
    16   109   112    1
    17   109   110    1
    18    11    12    1
    19   104   101    1
    20   104   105    1
    21   112   113    1
    22   113   114    1
    23   101   100    1
    24    63    60    1
    25    63    64    1
    26    14    17    1
    27    14    15    1
    28    19    17    1
    29   107   105   ar
    30    65    64   ar
    31    65    67   ar
    32    59    60    1
    33    17    18    1
    34   105   106   ar
    35    15    16    2
    36   110   111    2
    37    60    61    1
    38    64    66   ar
    39    67    69   ar
    40   114   115    1
    41    50    49    1
    42    66    68   ar
    43    69    68   ar
    44    49    48   ar
    45    49    47   ar
    46    61    62    2
    47    48    46   ar
    48    96    95    2
    49    47    45   ar
    50    46    44   ar
    51    95    94    1
    52    45    44   ar
    53    44    43    1
    54    57    56    1
    55    43    40    1
    56    98    97    1
    57    97    94    1
    58    97    99    1
    59    94    93    1
    60    76    74    1
    61    56    58    1
    62    56    55    1
    63    70    71    1
    64    71    74    1
    65    71    72    1
    66    40    39    1
    67    40    41    1
    68    27    25   am
    69    55    52    1
    70    35    37   ar
    71    35    33   ar
    72    37    38   ar
    73    74    75    1
    74    39    30   am
    75    41    42    2
    76    24    25    1
    77    24    21    1
    78    25    26    2
    79    88    87    2
    80    72    73    2
    81    20    21    1
    82    54    53    2
    83    38    36   ar
    84    33    32    1
    85    33    34   ar
    86    32    29    1
    87    21    22    1
    88    52    53    1
    89    52    51    1
    90    30    29    1
    91    30    31    2
    92    28    29    1
    93   116   117    1
    94    87    86    1
    95   122   124   ar
    96   122   121   ar
    97    34    36   ar
    98   120   117    1
    99   120   121    1
   100   117   118    1
   101   124   125   ar
   102    22    23    2
   103   121   123   ar
   104    86    85    1
   105    86    89    1
   106    90    92    1
   107    90    89    1
   108    90    91    1
   109    77    78    1
   110   125   123   ar
   111   125   127   ar
   112   118   119    2
   113   123   126   ar
   114    84    83    1
   115    78    81    1
   116    78    79    1
   117    81    82    1
   118    83    82    1
   119   127   129   ar
   120   126   128   ar
   121    79    80    2
   122   129   128   ar
