@<TRIPOS>MOLECULE
tmp/2pzyC00.pdb
 149 138 0 0 0
SMALL
GASTEIGER

@<TRIPOS>ATOM
      1  N         34.2970  -61.0090   14.1420 N.3    29  LEU29      -0.1231
      2  CA        34.5560  -62.4150   14.4510 C.3    29  LEU29       0.1696
      3  C         35.8680  -62.6130   15.2080 C.2    29  LEU29       0.2632
      4  O         35.9550  -63.4740   16.0890 O.2    29  LEU29      -0.2714
      5  CB        34.5800  -63.2390   13.1650 C.3    29  LEU29       0.0284
      6  CG        33.2000  -63.2970   12.5220 C.3    29  LEU29       0.0019
      7  CD1       33.1180  -64.2670   11.3500 C.3    29  LEU29       0.0001
      8  CD2       32.2690  -63.7090   13.6130 C.3    29  LEU29       0.0001
      9  N         36.8820  -61.8160   14.8640 N.am   30  GLY30      -0.1718
     10  CA        38.1570  -61.8660   15.5730 C.2    30  GLY30       0.1480
     11  C         39.1080  -60.7140   15.2720 C.2    30  GLY30       0.2820
     12  O         38.6800  -59.5940   14.9950 O.2    30  GLY30      -0.2669
     13  N         40.4080  -60.9830   15.3340 N.am   31  LEU31      -0.1929
     14  CA        41.3960  -60.0030   14.8980 C.3    31  LEU31       0.1731
     15  C         42.5980  -60.5860   14.1580 C.2    31  LEU31       0.2616
     16  O         43.6940  -60.6210   14.7080 O.2    31  LEU31      -0.2715
     17  CB        41.9020  -59.2010   16.0910 C.3    31  LEU31       0.0311
     18  CG        41.4840  -57.7340   16.0780 C.3    31  LEU31       0.0022
     19  CD1       42.3200  -56.9510   17.0890 C.3    31  LEU31       0.0001
     20  CD2       41.6630  -57.1790   14.6740 C.3    31  LEU31       0.0001
     21  N         42.3960  -61.0100   12.9090 N.am   32  GLY32      -0.1955
     22  CA        43.4760  -61.5930   12.1260 C.3    32  GLY32       0.1869
     23  C         44.6870  -60.6860   12.0100 C.2    32  GLY32       0.2309
     24  O         44.6070  -59.4950   12.3150 O.2    32  GLY32      -0.2863
     25  N         38.0780  -59.4960   11.1020 N.3    37  VAL37      -0.1245
     26  CA        37.1890  -60.3830   10.3620 C.3    37  VAL37       0.1561
     27  C         35.7330  -60.1820   10.7590 C.2    37  VAL37       0.2260
     28  O         35.3480  -60.4910   11.8750 O.2    37  VAL37      -0.2867
     29  CB        37.5530  -61.8750   10.5760 C.3    37  VAL37       0.0252
     30  CG1       36.6880  -62.7640    9.6680 C.3    37  VAL37       0.0019
     31  CG2       39.0260  -62.0990   10.2980 C.3    37  VAL37       0.0019
     32  N         32.9270  -65.0090    5.9830 N.3    50  ALA50      -0.1245
     33  CA        33.9150  -64.2660    6.7350 C.3    50  ALA50       0.1562
     34  C         34.5680  -63.2270    5.8270 C.2    50  ALA50       0.2260
     35  O         34.6260  -63.3880    4.5990 O.2    50  ALA50      -0.2867
     36  CB        34.9540  -65.2110    7.2950 C.3    50  ALA50       0.0290
     37  N         37.9840  -60.6360    5.9130 N.3    52  LYS52      -0.1245
     38  CA        39.1680  -60.0480    6.5220 C.3    52  LYS52       0.1561
     39  C         39.5040  -58.8050    5.7290 C.2    52  LYS52       0.2260
     40  O         39.5420  -58.8580    4.4980 O.2    52  LYS52      -0.2867
     41  CB        40.3420  -61.0250    6.4660 C.3    52  LYS52       0.0271
     42  CG        41.5870  -60.4810    7.1130 C.3    52  LYS52       0.0035
     43  CD        42.6860  -61.4950    7.1580 C.3    52  LYS52       0.0206
     44  CE        43.8690  -60.8770    7.8670 C.3    52  LYS52       0.1093
     45  NZ        45.1100  -61.7170    7.8960 N.3    52  LYS52      -0.1314
     46  N         41.4900  -72.8440    5.0480 N.3    77  VAL77      -0.1245
     47  CA        40.1860  -72.2150    4.8580 C.3    77  VAL77       0.1561
     48  C         40.0440  -71.6190    3.4740 C.2    77  VAL77       0.2260
     49  O         40.9440  -70.9550    2.9670 O.2    77  VAL77      -0.2867
     50  CB        39.8980  -71.1040    5.8650 C.3    77  VAL77       0.0252
     51  CG1       40.9940  -70.0690    5.8470 C.3    77  VAL77       0.0019
     52  CG2       38.5720  -70.4730    5.5110 C.3    77  VAL77       0.0019
     53  N         36.1580  -65.1210    2.9440 N.3    97  MET97      -0.1230
     54  CA        36.4720  -66.5220    3.1520 C.3    97  MET97       0.1702
     55  C         35.2530  -67.2680    3.6470 C.2    97  MET97       0.2592
     56  O         34.4100  -66.7100    4.3480 O.2    97  MET97      -0.2718
     57  CB        37.5870  -66.6840    4.1770 C.3    97  MET97       0.0401
     58  CG        38.8610  -65.9920    3.8450 C.3    97  MET97       0.0596
     59  SD        39.5370  -65.4520    5.3770 S.3    97  MET97      -0.1393
     60  CE        40.7330  -66.7410    5.6420 C.3    97  MET97       0.0692
     61  N         35.1750  -68.5420    3.2890 N.am   98  GLU98      -0.1966
     62  CA        34.1710  -69.4360    3.8500 C.3    98  GLU98       0.1733
     63  C         34.1370  -69.3140    5.3680 C.2    98  GLU98       0.2616
     64  O         35.1400  -68.9850    6.0050 O.2    98  GLU98      -0.2715
     65  CB        34.4970  -70.8790    3.4760 C.3    98  GLU98       0.0429
     66  CG        35.6410  -71.4340    4.2860 C.3    98  GLU98       0.1163
     67  CD        35.9110  -72.8740    3.9650 C.2    98  GLU98       0.3649
     68  OE1       36.8010  -73.4690    4.6020 O.co2  98  GLU98      -0.2457
     69  OE2       35.2300  -73.4080    3.0690 O.co2  98  GLU98      -0.2457
     70  N         32.9760  -69.6010    5.9480 N.am   99  CYS99      -0.1954
     71  CA        32.8070  -69.5310    7.3980 C.3    99  CYS99       0.1843
     72  C         33.1730  -70.8550    8.0780 C.2    99  CYS99       0.2625
     73  O         32.9160  -71.9320    7.5500 O.2    99  CYS99      -0.2714
     74  CB        31.3610  -69.1420    7.7400 C.3    99  CYS99       0.0997
     75  SG        31.1850  -68.2890    9.3270 S.3    99  CYS99      -0.0797
     76  N         33.7920  -70.7520    9.2470 N.am  100  LEU100     -0.1963
     77  CA        34.1630  -71.9060   10.0610 C.3   100  LEU100      0.1728
     78  C         33.6560  -71.6180   11.4700 C.2   100  LEU100      0.2616
     79  O         34.2580  -70.8330   12.1960 O.2   100  LEU100     -0.2715
     80  CB        35.6920  -72.0630   10.1000 C.3   100  LEU100      0.0311
     81  CG        36.5030  -72.1110    8.7960 C.3   100  LEU100      0.0022
     82  CD1       37.9990  -72.2130    9.0880 C.3   100  LEU100      0.0001
     83  CD2       36.0560  -73.2900    7.9880 C.3   100  LEU100      0.0001
     84  N         32.5450  -72.2300   11.8620 N.am  101  ASP101     -0.1971
     85  CA        31.9230  -71.8650   13.1300 C.3   101  ASP101      0.1709
     86  C         31.8300  -73.0570   14.0570 C.2   101  ASP101      0.2293
     87  O         31.1050  -73.0350   15.0410 O.2   101  ASP101     -0.2864
     88  CB        30.5330  -71.2800   12.8890 C.3   101  ASP101      0.1436
     89  CG        29.6510  -72.2090   12.0980 C.2   101  ASP101      0.3671
     90  OD1       30.1070  -73.3410   11.7990 O.co2 101  ASP101     -0.2456
     91  OD2       28.5120  -71.8030   11.7780 O.co2 101  ASP101     -0.2456
     92  N         37.4530  -73.2180   17.6920 N.3   104  GLU104     -0.1245
     93  CA        38.9000  -73.3920   17.5810 C.3   104  GLU104      0.1567
     94  C         39.3070  -74.7440   18.1670 C.2   104  GLU104      0.2260
     95  O         38.7310  -75.1950   19.1520 O.2   104  GLU104     -0.2867
     96  CB        39.6310  -72.2350   18.2840 C.3   104  GLU104      0.0388
     97  CG        40.0860  -72.5030   19.7090 C.3   104  GLU104      0.1160
     98  CD        40.7380  -71.2790   20.3570 C.2   104  GLU104      0.3649
     99  OE1       40.4290  -70.1390   19.9250 O.co2 104  GLU104     -0.2457
    100  OE2       41.5600  -71.4540   21.2930 O.co2 104  GLU104     -0.2457
    101  N         49.6570  -71.3260   15.2070 N.3   147  LYS147     -0.1245
    102  CA        49.2250  -71.4880   16.5940 C.3   147  LYS147      0.1561
    103  C         47.8500  -72.1680   16.6780 C.2   147  LYS147      0.2260
    104  O         47.1160  -72.2240   15.6900 O.2   147  LYS147     -0.2867
    105  CB        49.1620  -70.1190   17.2740 C.3   147  LYS147      0.0271
    106  CG        48.3000  -69.1110   16.5500 C.3   147  LYS147      0.0035
    107  CD        48.1170  -67.8660   17.3830 C.3   147  LYS147      0.0206
    108  CE        47.2470  -66.8530   16.6690 C.3   147  LYS147      0.1093
    109  NZ        48.0700  -65.8780   15.9080 N.3   147  LYS147     -0.1314
    110  N         44.9810  -71.2490   17.9160 N.3   149  GLU149     -0.1231
    111  CA        43.8350  -70.3710   17.6840 C.3   149  GLU149      0.1699
    112  C         43.5070  -70.2040   16.2050 C.2   149  GLU149      0.2592
    113  O         42.3780  -69.8720   15.8660 O.2   149  GLU149     -0.2718
    114  CB        44.1030  -68.9990   18.2980 C.3   149  GLU149      0.0402
    115  CG        44.4580  -69.0290   19.7750 C.3   149  GLU149      0.1161
    116  CD        45.8710  -69.5470   20.0440 C.2   149  GLU149      0.3649
    117  OE1       46.7420  -68.7560   20.4710 O.co2 149  GLU149     -0.2457
    118  OE2       46.1180  -70.7500   19.8390 O.co2 149  GLU149     -0.2457
    119  N         44.4930  -70.4240   15.3310 N.am  150  ASN150     -0.1974
    120  CA        44.3060  -70.3140   13.8840 C.3   150  ASN150      0.1688
    121  C         43.8210  -71.6090   13.2870 C.2   150  ASN150      0.2292
    122  O         43.6650  -71.7050   12.0720 O.2   150  ASN150     -0.2864
    123  CB        45.6110  -69.9410   13.1860 C.3   150  ASN150      0.1181
    124  CG        46.0160  -68.5140   13.4310 C.2   150  ASN150      0.2629
    125  OD1       45.2780  -67.5820   13.1220 O.2   150  ASN150     -0.2716
    126  ND2       47.2010  -68.3320   13.9860 N.am  150  ASN150     -0.0877
    127  N         40.6050  -73.8880   13.1060 N.3   152  LEU152     -0.1245
    128  CA        39.1600  -73.8310   13.3220 C.3   152  LEU152      0.1561
    129  C         38.4110  -74.9250   12.5710 C.2   152  LEU152      0.2260
    130  O         38.8560  -75.3830   11.5240 O.2   152  LEU152     -0.2867
    131  CB        38.5990  -72.4870   12.8840 C.3   152  LEU152      0.0270
    132  CG        39.3370  -71.2680   13.4400 C.3   152  LEU152      0.0019
    133  CD1       38.5390  -69.9990   13.1540 C.3   152  LEU152      0.0001
    134  CD2       39.5710  -71.4390   14.9070 C.3   152  LEU152      0.0001
    135  N         44.0920  -71.1060    9.2300 N.3   165  THR165     -0.1203
    136  CA        43.7160  -69.7720    8.7760 C.3   165  THR165      0.1994
    137  C         44.7960  -68.7500    9.1480 C.2   165  THR165      0.2617
    138  O         45.5620  -68.9560   10.0930 O.2   165  THR165     -0.2717
    139  CB        42.3840  -69.3140    9.4190 C.3   165  THR165      0.1784
    140  OG1       42.5440  -69.2760   10.8400 O.3   165  THR165     -0.2211
    141  CG2       41.2370  -70.2510    9.0620 C.3   165  THR165      0.0376
    142  N         44.8380  -67.6590    8.3850 N.am  166  ASP166     -0.1973
    143  CA        45.6570  -66.4700    8.6560 C.3   166  ASP166      0.1709
    144  C         47.0520  -66.5050    8.0510 C.2   166  ASP166      0.2293
    145  O         48.0420  -66.8450    8.7090 O.2   166  ASP166     -0.2864
    146  CB        45.7750  -66.1890   10.1490 C.3   166  ASP166      0.1436
    147  CG        45.9030  -64.7040   10.4420 C.2   166  ASP166      0.3671
    148  OD1       46.0970  -63.9490    9.4790 O.co2 166  ASP166     -0.2456
    149  OD2       45.7950  -64.2820   11.6160 O.co2 166  ASP166     -0.2456
@<TRIPOS>BOND
     1    53    54    1
     2    49    48    2
     3    69    67   ar
     4    54    55    1
     5    54    57    1
     6    61    55   am
     7    61    62    1
     8    48    47    1
     9    65    62    1
    10    65    66    1
    11    55    56    2
    12    58    57    1
    13    58    59    1
    14    62    63    1
    15    67    66    1
    16    67    68   ar
    17    40    39    2
    18    35    34    2
    19    47    46    1
    20    47    50    1
    21    63    70   am
    22    63    64    2
    23    59    60    1
    24    52    50    1
    25    39    38    1
    26    34    33    1
    27    51    50    1
    28    37    38    1
    29    70    71    1
    30    32    33    1
    31    41    38    1
    32    41    42    1
    33    33    36    1
    34    42    43    1
    35    43    44    1
    36    71    74    1
    37    71    72    1
    38    73    72    2
    39    74    75    1
    40    44    45    1
    41    83    81    1
    42   144   143    1
    43   144   145    2
    44    72    76   am
    45   142   143    1
    46   142   137   am
    47   143   146    1
    48   136   137    1
    49   136   135    1
    50   136   139    1
    51    81    82    1
    52    81    80    1
    53   141   139    1
    54   137   138    2
    55    76    77    1
    56   139   140    1
    57   148   147   ar
    58    30    29    1
    59    77    80    1
    60    77    78    1
    61   146   147    1
    62    31    29    1
    63    26    29    1
    64    26    27    1
    65    26    25    1
    66   147   149   ar
    67    27    28    2
    68     7     6    1
    69    78    84   am
    70    78    79    2
    71   130   129    2
    72    91    89   ar
    73    90    89   ar
    74    84    85    1
    75    23    22    1
    76    23    24    2
    77   122   121    2
    78    89    88    1
    79    22    21    1
    80     6     5    1
    81     6     8    1
    82   129   128    1
    83   131   128    1
    84   131   132    1
    85    88    85    1
    86    21    15   am
    87   127   128    1
    88   125   124    2
    89    85    86    1
    90   133   132    1
    91     5     2    1
    92   123   124    1
    93   123   120    1
    94   121   120    1
    95   124   126   am
    96   132   134    1
    97   120   119    1
    98    86    87    2
    99     1     2    1
   100    15    16    2
   101    15    14    1
   102     2     3    1
   103    20    18    1
   104     9     3    1
   105     9    10    2
   106    14    13    1
   107    14    17    1
   108    12    11    2
   109   101   102    1
   110     3     4    2
   111    11    13   am
   112    11    10    1
   113   119   112   am
   114   104   103    2
   115   113   112    2
   116   109   108    1
   117    18    17    1
   118    18    19    1
   119   112   111    1
   120   106   105    1
   121   106   107    1
   122   102   103    1
   123   102   105    1
   124   108   107    1
   125    93    92    1
   126    93    94    1
   127    93    96    1
   128   111   110    1
   129   111   114    1
   130    94    95    2
   131    96    97    1
   132   114   115    1
   133    97    98    1
   134   115   116    1
   135   118   116   ar
   136    99    98   ar
   137   116   117   ar
   138    98   100   ar
