@<TRIPOS>MOLECULE
tmp/2pzyA00.pdb
 174 162 0 0 0
SMALL
GASTEIGER

@<TRIPOS>ATOM
      1  N         39.0950  -33.0630  -32.3030 N.3    27  GLN27      -0.1231
      2  CA        38.8850  -31.7160  -31.7960 C.3    27  GLN27       0.1698
      3  C         39.1430  -31.5750  -30.2930 C.2    27  GLN27       0.2592
      4  O         38.6060  -32.3290  -29.4810 O.2    27  GLN27      -0.2718
      5  CB        37.4650  -31.2660  -32.1190 C.3    27  GLN27       0.0381
      6  CG        37.1180  -29.9050  -31.5740 C.3    27  GLN27       0.0905
      7  CD        35.8470  -29.9510  -30.7770 C.2    27  GLN27       0.2608
      8  OE1       35.2550  -31.0170  -30.6060 O.2    27  GLN27      -0.2717
      9  NE2       35.4120  -28.8010  -30.2840 N.am   27  GLN27      -0.0878
     10  N         39.9580  -30.5860  -29.9310 N.am   28  VAL28      -0.1966
     11  CA        40.3940  -30.3950  -28.5500 C.3    28  VAL28       0.1727
     12  C         39.4540  -29.5450  -27.7120 C.2    28  VAL28       0.2616
     13  O         39.0790  -28.4510  -28.1100 O.2    28  VAL28      -0.2715
     14  CB        41.7640  -29.7280  -28.4970 C.3    28  VAL28       0.0290
     15  CG1       42.0480  -29.2670  -27.0900 C.3    28  VAL28       0.0023
     16  CG2       42.8320  -30.7010  -28.9480 C.3    28  VAL28       0.0023
     17  N         39.0970  -30.0420  -26.5340 N.am   29  LEU29      -0.1963
     18  CA        38.2720  -29.2800  -25.5990 C.3    29  LEU29       0.1728
     19  C         39.1230  -28.4230  -24.6570 C.2    29  LEU29       0.2617
     20  O         38.6730  -27.3880  -24.1630 O.2    29  LEU29      -0.2715
     21  CB        37.3940  -30.2230  -24.7590 C.3    29  LEU29       0.0311
     22  CG        36.2360  -30.9820  -25.4250 C.3    29  LEU29       0.0022
     23  CD1       35.4100  -31.7260  -24.3740 C.3    29  LEU29       0.0001
     24  CD2       35.3720  -29.9970  -26.1950 C.3    29  LEU29       0.0001
     25  N         40.3500  -28.8710  -24.4070 N.am   30  GLY30      -0.1940
     26  CA        41.2100  -28.1990  -23.4510 C.3    30  GLY30       0.2014
     27  C         42.6020  -28.7960  -23.4460 C.2    30  GLY30       0.2639
     28  O         42.9080  -29.6910  -24.2210 O.2    30  GLY30      -0.2714
     29  N         43.4590  -28.2870  -22.5730 N.am   31  LEU31      -0.1963
     30  CA        44.8040  -28.8250  -22.4240 C.3    31  LEU31       0.1728
     31  C         45.0600  -28.9360  -20.9330 C.2    31  LEU31       0.2616
     32  O         44.6370  -28.0670  -20.1740 O.2    31  LEU31      -0.2715
     33  CB        45.8330  -27.8870  -23.0670 C.3    31  LEU31       0.0311
     34  CG        45.7060  -27.5640  -24.5660 C.3    31  LEU31       0.0022
     35  CD1       44.6110  -26.5270  -24.8200 C.3    31  LEU31       0.0001
     36  CD2       47.0320  -27.0310  -25.0580 C.3    31  LEU31       0.0001
     37  N         45.7280  -30.0100  -20.5190 N.am   32  GLY32      -0.1955
     38  CA        46.0600  -30.2020  -19.1160 C.3    32  GLY32       0.1869
     39  C         47.4230  -30.8470  -19.0180 C.2    32  GLY32       0.2309
     40  O         47.9920  -31.2250  -20.0370 O.2    32  GLY32      -0.2863
     41  N         42.9220  -32.9080  -23.9470 N.3    37  VAL37      -0.1245
     42  CA        41.5790  -33.4460  -23.7930 C.3    37  VAL37       0.1561
     43  C         40.8130  -33.3210  -25.1000 C.2    37  VAL37       0.2260
     44  O         40.4180  -32.2160  -25.4900 O.2    37  VAL37      -0.2867
     45  CB        40.7920  -32.6950  -22.7050 C.3    37  VAL37       0.0252
     46  CG1       39.4420  -33.3560  -22.4830 C.3    37  VAL37       0.0019
     47  CG2       41.5990  -32.6640  -21.4170 C.3    37  VAL37       0.0019
     48  N         37.4400  -34.2610  -27.5590 N.3    39  GLN39      -0.1245
     49  CA        36.0580  -34.6100  -27.3310 C.3    39  GLN39       0.1566
     50  C         35.6670  -35.8610  -28.0680 C.2    39  GLN39       0.2260
     51  O         35.9040  -35.9940  -29.2740 O.2    39  GLN39      -0.2867
     52  CB        35.1310  -33.5090  -27.7590 C.3    39  GLN39       0.0367
     53  CG        33.6890  -33.8740  -27.5650 C.3    39  GLN39       0.0905
     54  CD        32.8410  -32.6380  -27.5550 C.2    39  GLN39       0.2608
     55  OE1       32.2560  -32.2560  -26.5340 O.2    39  GLN39      -0.2717
     56  NE2       32.7800  -31.9800  -28.7090 N.am   39  GLN39      -0.0878
     57  N         28.0170  -37.1400  -25.1770 N.3    48  LYS48      -0.1245
     58  CA        29.2770  -36.4510  -25.4400 C.3    48  LYS48       0.1561
     59  C         30.2100  -36.4200  -24.2070 C.2    48  LYS48       0.2260
     60  O         29.7630  -36.1470  -23.0890 O.2    48  LYS48      -0.2867
     61  CB        28.9420  -35.0380  -25.9150 C.3    48  LYS48       0.0271
     62  CG        30.0890  -34.2520  -26.4930 C.3    48  LYS48       0.0035
     63  CD        29.5650  -33.0160  -27.2220 C.3    48  LYS48       0.0206
     64  CE        28.7560  -32.0830  -26.3050 C.3    48  LYS48       0.1093
     65  NZ        29.5790  -31.2990  -25.3170 N.3    48  LYS48      -0.1314
     66  N         34.5760  -36.2440  -22.4250 N.3    50  ALA50      -0.1245
     67  CA        35.9310  -35.7260  -22.5080 C.3    50  ALA50       0.1562
     68  C         36.9450  -36.8520  -22.3530 C.2    50  ALA50       0.2260
     69  O         36.8310  -37.7020  -21.4680 O.2    50  ALA50      -0.2867
     70  CB        36.1500  -34.6800  -21.4350 C.3    50  ALA50       0.0290
     71  N         41.0500  -37.6500  -21.9880 N.3    52  LYS52      -0.1245
     72  CA        42.4370  -37.2290  -21.7660 C.3    52  LYS52       0.1561
     73  C         43.3520  -38.3730  -22.1760 C.2    52  LYS52       0.2260
     74  O         43.0770  -39.5280  -21.8700 O.2    52  LYS52      -0.2867
     75  CB        42.6760  -36.8840  -20.2830 C.3    52  LYS52       0.0271
     76  CG        43.9990  -36.1610  -19.9990 C.3    52  LYS52       0.0035
     77  CD        44.1120  -35.7280  -18.5270 C.3    52  LYS52       0.0206
     78  CE        45.3590  -34.8500  -18.2470 C.3    52  LYS52       0.1093
     79  NZ        45.5940  -34.5030  -16.7930 N.3    52  LYS52      -0.1314
     80  N         48.1250  -40.4760  -11.6830 N.3    63  GLU63      -0.1245
     81  CA        46.9990  -39.5870  -11.9130 C.3    63  GLU63       0.1567
     82  C         45.6620  -40.3450  -11.9430 C.2    63  GLU63       0.2260
     83  O         44.7350  -39.9890  -11.2250 O.2    63  GLU63      -0.2867
     84  CB        47.1890  -38.7990  -13.2170 C.3    63  GLU63       0.0388
     85  CG        46.0510  -37.8180  -13.4680 C.3    63  GLU63       0.1160
     86  CD        46.1810  -37.0580  -14.7640 C.2    63  GLU63       0.3649
     87  OE1       47.3170  -36.9140  -15.2650 O.co2  63  GLU63      -0.2457
     88  OE2       45.1390  -36.5980  -15.2800 O.co2  63  GLU63      -0.2457
     89  N         35.5060  -33.4480  -11.1770 N.3    77  VAL77      -0.1245
     90  CA        34.9600  -33.9680  -12.4320 C.3    77  VAL77       0.1561
     91  C         34.9610  -35.4920  -12.4320 C.2    77  VAL77       0.2260
     92  O         35.9870  -36.1260  -12.1500 O.2    77  VAL77      -0.2867
     93  CB        35.7500  -33.4600  -13.6780 C.3    77  VAL77       0.0252
     94  CG1       37.1170  -34.1090  -13.7510 C.3    77  VAL77       0.0019
     95  CG2       34.9660  -33.7630  -14.9490 C.3    77  VAL77       0.0019
     96  N         35.9820  -38.7270  -19.1720 N.3    97  MET97      -0.1230
     97  CA        35.3340  -37.9320  -18.1260 C.3    97  MET97       0.1702
     98  C         34.0320  -37.3060  -18.6240 C.2    97  MET97       0.2592
     99  O         33.7910  -37.2180  -19.8380 O.2    97  MET97      -0.2718
    100  CB        36.2690  -36.8150  -17.6430 C.3    97  MET97       0.0401
    101  CG        37.6200  -37.3130  -17.1630 C.3    97  MET97       0.0596
    102  SD        38.9290  -36.0510  -17.0740 S.3    97  MET97      -0.1393
    103  CE        39.5340  -35.9780  -18.7360 C.3    97  MET97       0.0692
    104  N         33.2100  -36.8590  -17.6740 N.am   98  GLU98      -0.1966
    105  CA        32.0000  -36.1150  -17.9820 C.3    98  GLU98       0.1733
    106  C         32.3340  -34.8350  -18.7150 C.2    98  GLU98       0.2616
    107  O         33.4880  -34.4660  -18.8030 O.2    98  GLU98      -0.2715
    108  CB        31.2520  -35.7910  -16.7020 C.3    98  GLU98       0.0429
    109  CG        31.9480  -34.8220  -15.8000 C.3    98  GLU98       0.1163
    110  CD        31.3350  -34.8270  -14.4100 C.2    98  GLU98       0.3649
    111  OE1       31.8770  -34.1530  -13.5100 O.co2  98  GLU98      -0.2457
    112  OE2       30.3080  -35.5140  -14.2170 O.co2  98  GLU98      -0.2457
    113  N         31.3390  -34.1570  -19.2650 N.am   99  CYS99      -0.1954
    114  CA        31.6140  -32.9050  -19.9560 C.3    99  CYS99       0.1843
    115  C         31.2340  -31.7250  -19.0870 C.2    99  CYS99       0.2625
    116  O         30.2930  -31.8090  -18.2930 O.2    99  CYS99      -0.2714
    117  CB        30.8530  -32.8410  -21.2710 C.3    99  CYS99       0.0997
    118  SG        31.9500  -32.6860  -22.6610 S.3    99  CYS99      -0.0797
    119  N         31.9760  -30.6300  -19.2400 N.am  100  LEU100     -0.1963
    120  CA        31.7660  -29.4170  -18.4610 C.3   100  LEU100      0.1728
    121  C         31.6360  -28.2190  -19.4100 C.2   100  LEU100      0.2616
    122  O         32.6310  -27.7350  -19.9380 O.2   100  LEU100     -0.2715
    123  CB        32.9490  -29.2360  -17.5090 C.3   100  LEU100      0.0311
    124  CG        33.2340  -30.4370  -16.5830 C.3   100  LEU100      0.0022
    125  CD1       34.4030  -30.1640  -15.6230 C.3   100  LEU100      0.0001
    126  CD2       31.9750  -30.7340  -15.7740 C.3   100  LEU100      0.0001
    127  N         30.4070  -27.7490  -19.6290 N.am  101  ASP101     -0.1971
    128  CA        30.1290  -26.7540  -20.6690 C.3   101  ASP101      0.1709
    129  C         30.0400  -25.3160  -20.1860 C.2   101  ASP101      0.2293
    130  O         30.0170  -24.3880  -20.9950 O.2   101  ASP101     -0.2864
    131  CB        28.8350  -27.1000  -21.3980 C.3   101  ASP101      0.1436
    132  CG        28.9910  -28.2900  -22.3090 C.2   101  ASP101      0.3671
    133  OD1       28.5290  -29.3830  -21.9170 O.co2 101  ASP101     -0.2456
    134  OD2       29.5750  -28.1300  -23.4090 O.co2 101  ASP101     -0.2456
    135  N         41.7420  -22.1660  -14.3790 N.3   146  GLU146     -0.1231
    136  CA        41.5860  -22.9560  -15.5940 C.3   146  GLU146      0.1699
    137  C         41.2940  -24.4310  -15.2870 C.2   146  GLU146      0.2592
    138  O         40.8320  -25.1730  -16.1560 O.2   146  GLU146     -0.2718
    139  CB        42.8450  -22.8560  -16.4510 C.3   146  GLU146      0.0402
    140  CG        43.4260  -21.4620  -16.5390 C.3   146  GLU146      0.1161
    141  CD        44.4480  -21.1940  -15.4520 C.2   146  GLU146      0.3649
    142  OE1       44.0390  -20.9260  -14.3020 O.co2 146  GLU146     -0.2457
    143  OE2       45.6610  -21.2540  -15.7500 O.co2 146  GLU146     -0.2457
    144  N         41.5780  -24.8590  -14.0600 N.am  147  ASN147     -0.1974
    145  CA        41.2010  -26.1950  -13.6260 C.3   147  ASN147      0.1688
    146  C         39.8100  -26.1870  -13.0000 C.2   147  ASN147      0.2292
    147  O         39.4380  -27.1080  -12.2790 O.2   147  ASN147     -0.2864
    148  CB        42.2040  -26.7390  -12.6120 C.3   147  ASN147      0.1181
    149  CG        43.4560  -27.2680  -13.2600 C.2   147  ASN147      0.2629
    150  OD1       43.6560  -27.1050  -14.4630 O.2   147  ASN147     -0.2716
    151  ND2       44.3140  -27.9110  -12.4670 N.am  147  ASN147     -0.0877
    152  N         35.9130  -25.8640  -14.2170 N.3   149  LEU149     -0.1245
    153  CA        34.8990  -25.7660  -15.2560 C.3   149  LEU149      0.1561
    154  C         33.5320  -26.0170  -14.6500 C.2   149  LEU149      0.2260
    155  O         33.4060  -26.7830  -13.6880 O.2   149  LEU149     -0.2867
    156  CB        35.1510  -26.8100  -16.3290 C.3   149  LEU149      0.0270
    157  CG        36.5580  -26.8560  -16.9010 C.3   149  LEU149      0.0019
    158  CD1       36.5500  -27.4850  -18.2710 C.3   149  LEU149      0.0001
    159  CD2       37.0730  -25.4420  -17.0190 C.3   149  LEU149      0.0001
    160  N         39.1190  -29.8940  -12.0800 N.3   162  THR162     -0.1203
    161  CA        39.6860  -30.8150  -13.0400 C.3   162  THR162      0.1994
    162  C         41.1960  -30.9850  -12.8000 C.2   162  THR162      0.2617
    163  O         41.8010  -30.2400  -12.0330 O.2   162  THR162     -0.2717
    164  CB        39.4680  -30.2960  -14.4530 C.3   162  THR162      0.1784
    165  OG1       40.5790  -29.4800  -14.8310 O.3   162  THR162     -0.2211
    166  CG2       38.2260  -29.4310  -14.5110 C.3   162  THR162      0.0376
    167  N         41.7740  -31.9910  -13.4540 N.am  163  ASP163     -0.1973
    168  CA        43.2150  -32.2480  -13.5800 C.3   163  ASP163      0.1709
    169  C         43.9990  -32.7280  -12.3800 C.2   163  ASP163      0.2293
    170  O         44.3680  -31.9490  -11.5280 O.2   163  ASP163     -0.2864
    171  CB        43.9490  -31.0520  -14.1850 C.3   163  ASP163      0.1436
    172  CG        45.2240  -31.4800  -14.8950 C.2   163  ASP163      0.3671
    173  OD1       45.9330  -32.3300  -14.3070 O.co2 163  ASP163     -0.2456
    174  OD2       45.5130  -31.0080  -16.0310 O.co2 163  ASP163     -0.2456
@<TRIPOS>BOND
     1     1     2    1
     2     5     2    1
     3     5     6    1
     4     2     3    1
     5     6     7    1
     6     7     8    2
     7     7     9   am
     8     3    10   am
     9     3     4    2
    10    10    11    1
    11    51    50    2
    12    16    14    1
    13    56    54   am
    14    11    14    1
    15    11    12    1
    16    14    15    1
    17    13    12    2
    18    50    49    1
    19    52    53    1
    20    52    49    1
    21    12    17   am
    22    53    54    1
    23    48    49    1
    24    54    55    2
    25    63    62    1
    26    63    64    1
    27    17    18    1
    28    62    61    1
    29    64    65    1
    30    24    22    1
    31    61    58    1
    32    18    21    1
    33    18    19    1
    34    44    43    2
    35    58    57    1
    36    58    59    1
    37    22    21    1
    38    22    23    1
    39    43    42    1
    40    36    34    1
    41    35    34    1
    42    19    25   am
    43    19    20    2
    44    34    33    1
    45    25    26    1
    46    28    27    2
    47    59    60    2
    48    41    42    1
    49    42    45    1
    50    26    27    1
    51    27    29   am
    52   134   132   ar
    53    33    30    1
    54    45    46    1
    55    45    47    1
    56   118   117    1
    57    29    30    1
    58    67    66    1
    59    67    68    1
    60    67    70    1
    61    30    31    1
    62    68    69    2
    63   132   133   ar
    64   132   131    1
    65    73    74    2
    66    73    72    1
    67    71    72    1
    68    72    75    1
    69   131   128    1
    70   117   114    1
    71   130   129    2
    72    31    37   am
    73    31    32    2
    74   128   129    1
    75   128   127    1
    76    37    38    1
    77    75    76    1
    78    40    39    2
    79    76    77    1
    80   114   113    1
    81   114   115    1
    82   122   121    2
    83    99    98    2
    84   127   121   am
    85   121   120    1
    86   113   106   am
    87   119   115   am
    88   119   120    1
    89    96    97    1
    90    38    39    1
    91   115   116    2
    92   107   106    2
    93   103   102    1
    94   106   105    1
    95    98    97    1
    96    98   104   am
    97    77    78    1
    98   120   123    1
    99   158   157    1
   100    78    79    1
   101    97   100    1
   102   105   104    1
   103   105   108    1
   104   100   101    1
   105   123   124    1
   106   101   102    1
   107   159   157    1
   108   157   156    1
   109   108   109    1
   110   124   126    1
   111   124   125    1
   112   140   139    1
   113   140   141    1
   114   139   136    1
   115   156   153    1
   116   138   137    2
   117   174   172   ar
   118   109   110    1
   119   143   141   ar
   120   136   137    1
   121   136   135    1
   122   141   142   ar
   123   137   144   am
   124    88    86   ar
   125    87    86   ar
   126   153   154    1
   127   153   152    1
   128    95    93    1
   129   172   173   ar
   130   172   171    1
   131   165   164    1
   132    86    85    1
   133   154   155    2
   134   166   164    1
   135   150   149    2
   136   164   161    1
   137   110   112   ar
   138   110   111   ar
   139   171   168    1
   140   144   145    1
   141    94    93    1
   142    93    90    1
   143   145   146    1
   144   145   148    1
   145   168   167    1
   146   168   169    1
   147    85    84    1
   148   167   162   am
   149   149   148    1
   150   149   151   am
   151    84    81    1
   152   161   162    1
   153   161   160    1
   154   146   147    2
   155   162   163    2
   156    90    91    1
   157    90    89    1
   158    91    92    2
   159   169   170    2
   160    82    81    1
   161    82    83    2
   162    81    80    1
