@<TRIPOS>MOLECULE
tmp/2q09A00.pdb
 118 112 0 0 0
SMALL
GASTEIGER

@<TRIPOS>ATOM
      1  N         15.3520   42.1090   14.2400 N.3    67  HIS67      -0.1241
      2  CA        14.0140   42.6570   14.4410 C.3    67  HIS67       0.1621
      3  C         13.1860   41.9300   13.3770 C.2    67  HIS67       0.2264
      4  O         12.3640   42.5550   12.7250 O.2    67  HIS67      -0.2867
      5  CB        13.9440   44.1550   14.0990 C.3    67  HIS67       0.0745
      6  CG        14.8790   45.0360   14.8740 C.ar   67  HIS67       0.0817
      7  ND1       14.4280   45.9750   15.7780 N.ar   67  HIS67      -0.2268
      8  CD2       16.2200   45.2110   14.7950 C.ar   67  HIS67       0.1154
      9  CE1       15.4470   46.6920   16.2150 C.ar   67  HIS67       0.1986
     10  NE2       16.5480   46.2520   15.6330 N.ar   67  HIS67      -0.2212
     11  N          7.9160   48.6910    3.9850 N.3    74  ARG74      -0.1245
     12  CA         8.4030   50.0490    3.8020 C.3    74  ARG74       0.1563
     13  C          8.9670   50.2060    2.3850 C.2    74  ARG74       0.2260
     14  O          9.6030   51.2130    2.0700 O.2    74  ARG74      -0.2867
     15  CB         9.4990   50.3340    4.8290 C.3    74  ARG74       0.0307
     16  CG         9.0910   50.0010    6.2730 C.3    74  ARG74       0.0489
     17  CD         8.6120   51.2100    7.0280 C.3    74  ARG74       0.2205
     18  NE         9.7460   51.9630    7.5570 N.pl3  74  ARG74      -0.0865
     19  CZ        10.4790   51.6580    8.6230 C.cat  74  ARG74       0.5346
     20  NH1       10.2140   50.5820    9.3360 N.pl3  74  ARG74       0.1354
     21  NH2       11.4850   52.4580    8.9790 N.pl3  74  ARG74       0.1354
     22  N          9.3970   54.6150   10.7310 N.3    97  ILE97      -0.1245
     23  CA         9.2100   53.5310   11.6770 C.3    97  ILE97       0.1561
     24  C          7.7850   53.4610   12.2240 C.2    97  ILE97       0.2260
     25  O          7.3330   52.3950   12.6290 O.2    97  ILE97      -0.2867
     26  CB        10.2040   53.6320   12.8570 C.3    97  ILE97       0.0252
     27  CG1        9.9810   52.4660   13.8200 C.3    97  ILE97       0.0019
     28  CG2       10.0330   54.9610   13.5740 C.3    97  ILE97       0.0019
     29  CD1       11.0710   52.3040   14.8560 C.3    97  ILE97       0.0001
     30  N          8.2200   47.0680   17.9190 N.3   137  TYR137     -0.1241
     31  CA         7.3390   47.5910   16.8790 C.3   137  TYR137      0.1605
     32  C          5.8880   47.5960   17.3690 C.2   137  TYR137      0.2264
     33  O          4.9540   47.7640   16.5740 O.2   137  TYR137     -0.2867
     34  CB         7.4570   46.7640   15.5920 C.3   137  TYR137      0.0534
     35  CG         8.7670   46.9720   14.8520 C.ar  137  TYR137     -0.0201
     36  CD1        9.2370   48.2570   14.5850 C.ar  137  TYR137     -0.0009
     37  CD2        9.5280   45.8910   14.4100 C.ar  137  TYR137     -0.0009
     38  CE1       10.4300   48.4680   13.8980 C.ar  137  TYR137      0.0417
     39  CE2       10.7260   46.0850   13.7160 C.ar  137  TYR137      0.0417
     40  CZ        11.1690   47.3780   13.4650 C.ar  137  TYR137      0.1957
     41  OH        12.3410   47.5750   12.7700 O.3   137  TYR137     -0.2866
     42  N         12.2280   51.6130   21.7630 N.3   169  HIS169     -0.1241
     43  CA        12.7520   51.7180   20.4010 C.3   169  HIS169      0.1621
     44  C         12.4550   53.1110   19.8600 C.2   169  HIS169      0.2264
     45  O         13.1740   53.6400   19.0090 O.2   169  HIS169     -0.2867
     46  CB        12.0750   50.6680   19.5130 C.3   169  HIS169      0.0745
     47  CG        12.7970   50.3950   18.2320 C.ar  169  HIS169      0.0817
     48  ND1       12.3180   49.5100   17.2900 N.ar  169  HIS169     -0.2268
     49  CD2       13.9740   50.8580   17.7500 C.ar  169  HIS169      0.1154
     50  CE1       13.1710   49.4380   16.2830 C.ar  169  HIS169      0.1986
     51  NE2       14.1850   50.2450   16.5370 N.ar  169  HIS169     -0.2212
     52  N         17.0170   52.1380   22.4980 N.3   206  PHE206     -0.1241
     53  CA        17.5340   52.9480   21.4050 C.3   206  PHE206      0.1605
     54  C         17.9040   54.3010   22.0020 C.2   206  PHE206      0.2264
     55  O         17.0700   55.2000   22.1110 O.2   206  PHE206     -0.2867
     56  CB        16.4850   53.1360   20.3060 C.3   206  PHE206      0.0534
     57  CG        16.9390   54.0340   19.1930 C.ar  206  PHE206     -0.0203
     58  CD1       18.1920   53.8590   18.6110 C.ar  206  PHE206     -0.0042
     59  CD2       16.1030   55.0330   18.6990 C.ar  206  PHE206     -0.0042
     60  CE1       18.6070   54.6660   17.5480 C.ar  206  PHE206     -0.0003
     61  CE2       16.5110   55.8410   17.6410 C.ar  206  PHE206     -0.0003
     62  CZ        17.7650   55.6530   17.0640 C.ar  206  PHE206     -0.0000
     63  N         21.0990   49.8580   21.5840 N.3   234  HIS234     -0.1241
     64  CA        21.4290   50.3560   20.2520 C.3   234  HIS234      0.1621
     65  C         22.2020   51.6380   20.5480 C.2   234  HIS234      0.2264
     66  O         21.6000   52.6840   20.7890 O.2   234  HIS234     -0.2867
     67  CB        20.1580   50.7010   19.4700 C.3   234  HIS234      0.0745
     68  CG        19.4770   49.5180   18.8510 C.ar  234  HIS234      0.0817
     69  ND1       18.9200   48.4980   19.5900 N.ar  234  HIS234     -0.2268
     70  CD2       19.2340   49.2210   17.5520 C.ar  234  HIS234      0.1154
     71  CE1       18.3560   47.6230   18.7710 C.ar  234  HIS234      0.1986
     72  NE2       18.5310   48.0390   17.5310 N.ar  234  HIS234     -0.2212
     73  N         24.8180   55.0020   17.0540 N.3   236  GLN236     -0.1245
     74  CA        24.5650   54.7680   15.6370 C.3   236  GLN236      0.1566
     75  C         24.5520   56.0890   14.8620 C.2   236  GLN236      0.2260
     76  O         25.0990   56.1710   13.7600 O.2   236  GLN236     -0.2867
     77  CB        23.2320   54.0330   15.4410 C.3   236  GLN236      0.0367
     78  CG        22.8920   53.7280   13.9870 C.3   236  GLN236      0.0905
     79  CD        21.5240   53.0790   13.8250 C.2   236  GLN236      0.2608
     80  OE1       20.6400   53.2540   14.6620 O.2   236  GLN236     -0.2717
     81  NE2       21.3420   52.3390   12.7350 N.am  236  GLN236     -0.0878
     82  N         25.8430   48.6950   16.9980 N.3   256  HIS256     -0.1241
     83  CA        25.9980   49.7460   15.9770 C.3   256  HIS256      0.1621
     84  C         27.3600   50.4010   16.1920 C.2   256  HIS256      0.2264
     85  O         28.3200   50.0770   15.4950 O.2   256  HIS256     -0.2867
     86  CB        24.8670   50.7760   16.0350 C.3   256  HIS256      0.0745
     87  CG        23.6120   50.3200   15.3560 C.ar  256  HIS256      0.0817
     88  ND1       23.5650   50.0290   14.0080 N.ar  256  HIS256     -0.2268
     89  CD2       22.3690   50.0910   15.8390 C.ar  256  HIS256      0.1154
     90  CE1       22.3430   49.6390   13.6890 C.ar  256  HIS256      0.1986
     91  NE2       21.5990   49.6660   14.7800 N.ar  256  HIS256     -0.2212
     92  N         20.9480   42.4130   11.8150 N.3   307  ASP307     -0.1239
     93  CA        20.0720   43.5230   12.1940 C.3   307  ASP307      0.1674
     94  C         18.8130   43.5220   11.3270 C.2   307  ASP307      0.2266
     95  O         18.2490   44.5770   11.0430 O.2   307  ASP307     -0.2867
     96  CB        20.7960   44.8740   12.0640 C.3   307  ASP307      0.1410
     97  CG        19.9830   46.0360   12.6300 C.2   307  ASP307      0.3668
     98  OD1       19.2400   45.8080   13.6120 O.co2 307  ASP307     -0.2456
     99  OD2       20.0970   47.1750   12.1150 O.co2 307  ASP307     -0.2456
    100  N         15.6100   44.0660    9.7720 N.3   309  ASN309     -0.1240
    101  CA        14.5240   44.9510   10.1650 C.3   309  ASN309      0.1653
    102  C         13.9970   45.6420    8.9130 C.2   309  ASN309      0.2266
    103  O         14.7600   45.9440    7.9770 O.2   309  ASN309     -0.2867
    104  CB        14.9980   45.9520   11.2280 C.3   309  ASN309      0.1155
    105  CG        15.7480   47.1210   10.6440 C.2   309  ASN309      0.2627
    106  OD1       15.1570   48.0110   10.0150 O.2   309  ASN309     -0.2716
    107  ND2       17.0620   47.1330   10.8490 N.am  309  ASN309     -0.0877
    108  N         13.0810   48.6430    8.3230 N.3   311  GLY311     -0.1210
    109  CA        13.4680   50.0110    8.0440 C.3   311  GLY311      0.1956
    110  C         14.8720   50.3020    7.5310 C.2   311  GLY311      0.2612
    111  O         15.0280   51.0390    6.5550 O.2   311  GLY311     -0.2717
    112  N         15.8910   49.7280    8.1700 N.am  312  THR312     -0.1952
    113  CA        17.2770   50.0000    7.7950 C.3   312  THR312      0.1897
    114  C         18.1260   48.8100    7.3540 C.2   312  THR312      0.2313
    115  O         19.2730   48.9950    6.9570 O.2   312  THR312     -0.2863
    116  CB        18.0150   50.6680    8.9570 C.3   312  THR312      0.1794
    117  OG1       18.0680   49.7480   10.0510 O.3   312  THR312     -0.2208
    118  CG2       17.2810   51.9320    9.4140 C.3   312  THR312      0.0378
@<TRIPOS>BOND
     1    14    13    2
     2    13    12    1
     3    12    11    1
     4    12    15    1
     5    15    16    1
     6    16    17    1
     7   111   110    2
     8   115   114    2
     9    17    18    1
    10   114   113    1
    11   110   109    1
    12   110   112   am
    13    18    19    2
    14   113   112    1
    15   113   116    1
    16   103   102    2
    17   109   108    1
    18    19    21    1
    19    19    20    1
    20   102   101    1
    21   116   118    1
    22   116   117    1
    23   100   101    1
    24   106   105    2
    25   101   104    1
    26   105   107   am
    27   105   104    1
    28    22    23    1
    29    95    94    2
    30    94    93    1
    31    23    24    1
    32    23    26    1
    33    92    93    1
    34    96    93    1
    35    96    97    1
    36    99    97   ar
    37    24    25    2
    38    97    98   ar
    39     4     3    2
    40    81    79   am
    41    41    40    1
    42    26    28    1
    43    26    27    1
    44     3     2    1
    45    40    39   ar
    46    40    38   ar
    47    90    88   ar
    48    90    91   ar
    49    39    37   ar
    50    76    75    2
    51    27    29    1
    52    79    78    1
    53    79    80    2
    54    38    36   ar
    55    78    77    1
    56    88    87   ar
    57     5     2    1
    58     5     6    1
    59     1     2    1
    60    37    35   ar
    61    36    35   ar
    62    91    89   ar
    63     8     6   ar
    64     8    10   ar
    65    35    34    1
    66    75    74    1
    67     6     7   ar
    68    87    89   ar
    69    87    86    1
    70    77    74    1
    71    85    84    2
    72    34    31    1
    73    10     9   ar
    74    74    73    1
    75     7     9   ar
    76    83    86    1
    77    83    84    1
    78    83    82    1
    79    50    51   ar
    80    50    48   ar
    81    51    49   ar
    82    33    32    2
    83    31    32    1
    84    31    30    1
    85    62    60   ar
    86    62    61   ar
    87    48    47   ar
    88    72    70   ar
    89    72    71   ar
    90    60    58   ar
    91    70    68   ar
    92    61    59   ar
    93    49    47   ar
    94    47    46    1
    95    58    57   ar
    96    59    57   ar
    97    71    69   ar
    98    68    67    1
    99    68    69   ar
   100    45    44    2
   101    57    56    1
   102    67    64    1
   103    46    43    1
   104    44    43    1
   105    64    65    1
   106    64    63    1
   107    56    53    1
   108    43    42    1
   109    65    66    2
   110    53    54    1
   111    53    52    1
   112    54    55    2
