@<TRIPOS>MOLECULE
tmp/2q0aB00.pdb
 144 135 0 0 0
SMALL
GASTEIGER

@<TRIPOS>ATOM
      1  N         16.8890   21.5490  -14.0490 N.3   103  ILE103     -0.1245
      2  CA        17.0190   21.1140  -15.4470 C.3   103  ILE103      0.1561
      3  C         18.5040   21.0850  -15.8400 C.2   103  ILE103      0.2260
      4  O         19.2390   22.0350  -15.5880 O.2   103  ILE103     -0.2867
      5  CB        16.2600   22.0730  -16.4180 C.3   103  ILE103      0.0252
      6  CG1       14.7560   21.9960  -16.1710 C.3   103  ILE103      0.0019
      7  CG2       16.5730   21.7210  -17.8540 C.3   103  ILE103      0.0019
      8  CD1       13.9480   22.9170  -17.0460 C.3   103  ILE103      0.0001
      9  N         19.1060   30.6170  -14.8740 N.3   122  VAL122     -0.1245
     10  CA        19.1220   29.9400  -16.1750 C.3   122  VAL122      0.1561
     11  C         20.4480   30.0890  -16.9210 C.2   122  VAL122      0.2260
     12  O         20.7620   31.1650  -17.4130 O.2   122  VAL122     -0.2867
     13  CB        17.9950   30.4750  -17.1020 C.3   122  VAL122      0.0252
     14  CG1       17.9360   29.6490  -18.3710 C.3   122  VAL122      0.0019
     15  CG2       16.6510   30.4550  -16.3740 C.3   122  VAL122      0.0019
     16  N         22.4360   29.3500  -20.1030 N.3   124  THR124     -0.1218
     17  CA        22.5740   28.8050  -21.4280 C.3   124  THR124      0.1862
     18  C         24.0480   28.8970  -21.8080 C.2   124  THR124      0.2287
     19  O         24.3500   29.7920  -22.5370 O.2   124  THR124     -0.2866
     20  CB        21.9990   29.6790  -22.3830 C.3   124  THR124      0.1770
     21  OG1       22.3620   31.0100  -22.0220 O.3   124  THR124     -0.2211
     22  CG2       20.6050   29.6180  -22.2660 C.3   124  THR124      0.0375
     23  N         20.0780   34.0870  -16.3680 N.3   130  MET130     -0.1245
     24  CA        18.9030   34.9630  -16.3750 C.3   130  MET130      0.1570
     25  C         18.1840   34.4190  -15.1170 C.2   130  MET130      0.2261
     26  O         18.4030   33.2650  -14.7230 O.2   130  MET130     -0.2867
     27  CB        17.9990   34.7750  -17.5860 C.3   130  MET130      0.0387
     28  CG        18.6400   35.3170  -18.8280 C.3   130  MET130      0.0595
     29  SD        18.1120   34.4270  -20.2750 S.3   130  MET130     -0.1393
     30  CE        19.2980   33.1120  -20.3080 C.3   130  MET130      0.0692
     31  N         14.5180   33.8290  -12.7990 N.3   132  LEU132     -0.1245
     32  CA        13.0750   33.6760  -12.8710 C.3   132  LEU132      0.1561
     33  C         12.6340   33.4620  -11.4380 C.2   132  LEU132      0.2260
     34  O         13.2860   32.7320  -10.6860 O.2   132  LEU132     -0.2867
     35  CB        12.6930   32.4770  -13.7480 C.3   132  LEU132      0.0270
     36  CG        12.7510   32.7070  -15.2640 C.3   132  LEU132      0.0019
     37  CD1       12.7310   31.3770  -15.9810 C.3   132  LEU132      0.0001
     38  CD2       11.5800   33.5950  -15.7050 C.3   132  LEU132      0.0001
     39  N          9.2010   27.5240  -16.4100 N.3   138  PHE138     -0.1227
     40  CA        10.3720   27.1910  -17.2490 C.3   138  PHE138      0.1736
     41  C         10.2590   25.6700  -17.6120 C.2   138  PHE138      0.2596
     42  O          9.4960   24.9820  -16.9650 O.2   138  PHE138     -0.2718
     43  CB        11.6660   27.5560  -16.5020 C.3   138  PHE138      0.0547
     44  CG        11.8680   26.8110  -15.2210 C.ar  138  PHE138     -0.0202
     45  CD1       12.5600   25.6060  -15.2160 C.ar  138  PHE138     -0.0042
     46  CD2       11.3630   27.3020  -14.0170 C.ar  138  PHE138     -0.0042
     47  CE1       12.7490   24.8950  -14.0290 C.ar  138  PHE138     -0.0003
     48  CE2       11.5450   26.6000  -12.8290 C.ar  138  PHE138     -0.0003
     49  CZ        12.2390   25.3920  -12.8370 C.ar  138  PHE138     -0.0000
     50  N         10.9760   25.1490  -18.6200 N.am  139  GLY139     -0.1942
     51  CA        10.7860   23.7400  -19.0000 C.3   139  GLY139      0.2014
     52  C          9.7990   23.4090  -20.1660 C.2   139  GLY139      0.2639
     53  O          9.8180   22.2440  -20.5730 O.2   139  GLY139     -0.2714
     54  N          8.9800   24.3780  -20.6770 N.am  140  GLU140     -0.1963
     55  CA         7.9530   24.2560  -21.8070 C.3   140  GLU140      0.1733
     56  C          8.5390   23.9160  -23.1800 C.2   140  GLU140      0.2616
     57  O          7.9100   23.2280  -24.0140 O.2   140  GLU140     -0.2715
     58  CB         7.1400   25.5820  -22.0350 C.3   140  GLU140      0.0429
     59  CG         7.9520   26.7610  -22.6260 C.3   140  GLU140      0.1163
     60  CD         8.8700   27.3820  -21.5830 C.2   140  GLU140      0.3649
     61  OE1        9.6770   28.2660  -21.9290 O.co2 140  GLU140     -0.2457
     62  OE2        8.7840   26.9900  -20.4000 O.co2 140  GLU140     -0.2457
     63  N          9.7370   24.4460  -23.4120 N.am  141  ILE141     -0.1963
     64  CA        10.4370   24.2650  -24.6700 C.3   141  ILE141      0.1727
     65  C         10.4570   22.8190  -25.1070 C.2   141  ILE141      0.2616
     66  O         10.0520   22.5250  -26.2340 O.2   141  ILE141     -0.2715
     67  CB        11.9050   24.7790  -24.6430 C.3   141  ILE141      0.0290
     68  CG1       11.9340   26.3080  -24.4960 C.3   141  ILE141      0.0022
     69  CG2       12.6150   24.3680  -25.9420 C.3   141  ILE141      0.0023
     70  CD1       13.3180   26.9310  -24.5990 C.3   141  ILE141      0.0001
     71  N         10.9170   21.9150  -24.2360 N.am  142  CYS142     -0.1968
     72  CA        10.9790   20.4950  -24.5890 C.3   142  CYS142      0.1712
     73  C          9.6300   19.8090  -24.5950 C.2   142  CYS142      0.2296
     74  O          9.4640   18.7630  -25.2170 O.2   142  CYS142     -0.2864
     75  CB        11.9390   19.7470  -23.6760 C.3   142  CYS142      0.0983
     76  SG        13.6510   20.1300  -24.0420 S.3   142  CYS142     -0.0798
     77  N         16.9900   19.7610  -23.5830 N.3   149  ARG149     -0.1231
     78  CA        16.8880   20.9760  -22.7780 C.3   149  ARG149      0.1694
     79  C         17.8520   21.9930  -23.3850 C.2   149  ARG149      0.2593
     80  O         19.0390   21.7010  -23.5880 O.2   149  ARG149     -0.2718
     81  CB        17.2770   20.6830  -21.3230 C.3   149  ARG149      0.0321
     82  CG        16.3700   19.7010  -20.5900 C.3   149  ARG149      0.0489
     83  CD        14.9690   20.2660  -20.4030 C.3   149  ARG149      0.2205
     84  NE        14.1780   19.5000  -19.4390 N.pl3 149  ARG149     -0.0865
     85  CZ        12.9420   19.8160  -19.0670 C.cat 149  ARG149      0.5346
     86  NH1       12.3500   20.8840  -19.5810 N.pl3 149  ARG149      0.1354
     87  NH2       12.3010   19.0710  -18.1760 N.pl3 149  ARG149      0.1354
     88  N         17.3360   23.1860  -23.6730 N.am  150  THR150     -0.1939
     89  CA        18.1360   24.2340  -24.2940 C.3   150  THR150      0.2028
     90  C         19.0170   25.0060  -23.3220 C.2   150  THR150      0.2642
     91  O         19.9030   25.7580  -23.7380 O.2   150  THR150     -0.2714
     92  CB        17.2380   25.2240  -25.0540 C.3   150  THR150      0.1808
     93  OG1       16.4310   25.9500  -24.1220 O.3   150  THR150     -0.2208
     94  CG2       16.3310   24.4690  -26.0390 C.3   150  THR150      0.0379
     95  N         18.7860   24.8040  -22.0280 N.am  151  ALA151     -0.1977
     96  CA        19.5630   25.4800  -20.9940 C.3   151  ALA151      0.1597
     97  C         19.5140   24.6960  -19.6970 C.2   151  ALA151      0.2287
     98  O         18.8340   23.6770  -19.6060 O.2   151  ALA151     -0.2864
     99  CB        19.0020   26.8770  -20.7640 C.3   151  ALA151      0.0319
    100  N         18.7590   24.9410  -15.4770 N.3   153  VAL153     -0.1245
    101  CA        18.0030   25.7760  -14.5460 C.3   153  VAL153      0.1561
    102  C         18.2840   25.2420  -13.1380 C.2   153  VAL153      0.2260
    103  O         18.0120   24.0750  -12.8470 O.2   153  VAL153     -0.2867
    104  CB        16.4800   25.7420  -14.8030 C.3   153  VAL153      0.0252
    105  CG1       15.7810   26.6920  -13.8290 C.3   153  VAL153      0.0019
    106  CG2       16.1760   26.1260  -16.2430 C.3   153  VAL153      0.0019
    107  N         11.8500   33.1740  -25.8700 N.3   190  ARG190     -0.1231
    108  CA        13.0950   32.7420  -25.2410 C.3   190  ARG190      0.1694
    109  C         14.1080   32.2190  -26.2600 C.2   190  ARG190      0.2591
    110  O         15.3120   32.4700  -26.1410 O.2   190  ARG190     -0.2718
    111  CB        12.7960   31.6790  -24.1810 C.3   190  ARG190      0.0321
    112  CG        12.0080   32.2520  -23.0240 C.3   190  ARG190      0.0489
    113  CD        11.6460   31.2300  -21.9770 C.3   190  ARG190      0.2205
    114  NE        11.0180   31.8730  -20.8240 N.pl3 190  ARG190     -0.0865
    115  CZ        10.5330   31.2190  -19.7760 C.cat 190  ARG190      0.5346
    116  NH1       10.6060   29.8970  -19.7270 N.pl3 190  ARG190      0.1354
    117  NH2        9.9570   31.8860  -18.7840 N.pl3 190  ARG190      0.1354
    118  N         13.6100   31.5070  -27.2670 N.am  191  LEU191     -0.1980
    119  CA        14.4560   30.9470  -28.3120 C.3   191  LEU191      0.1596
    120  C         15.0320   32.0420  -29.2010 C.2   191  LEU191      0.2287
    121  O         16.1200   31.8910  -29.7520 O.2   191  LEU191     -0.2864
    122  CB        13.6480   29.9530  -29.1480 C.3   191  LEU191      0.0297
    123  CG        13.2070   28.7000  -28.3810 C.3   191  LEU191      0.0022
    124  CD1       12.0590   28.0130  -29.0990 C.3   191  LEU191      0.0001
    125  CD2       14.4010   27.7650  -28.2110 C.3   191  LEU191      0.0001
    126  N         16.0190   34.8420  -28.1520 N.3   193  ARG193     -0.1231
    127  CA        16.9600   35.6170  -27.3510 C.3   193  ARG193      0.1694
    128  C         18.3340   34.9630  -27.2430 C.2   193  ARG193      0.2592
    129  O         19.3250   35.6340  -26.9530 O.2   193  ARG193     -0.2718
    130  CB        16.3990   35.8390  -25.9500 C.3   193  ARG193      0.0321
    131  CG        15.0890   36.6030  -25.9100 C.3   193  ARG193      0.0489
    132  CD        14.6110   36.7060  -24.4720 C.3   193  ARG193      0.2205
    133  NE        13.1580   36.7590  -24.3410 N.pl3 193  ARG193     -0.0865
    134  CZ        12.5110   36.4140  -23.2310 C.cat 193  ARG193      0.5346
    135  NH1       13.1970   35.9970  -22.1740 N.pl3 193  ARG193      0.1354
    136  NH2       11.1850   36.4820  -23.1730 N.pl3 193  ARG193      0.1354
    137  N         18.3920   33.6540  -27.4640 N.am  194  ASP194     -0.1974
    138  CA        19.6560   32.9280  -27.3970 C.3   194  ASP194      0.1709
    139  C         20.5270   33.3540  -28.5750 C.2   194  ASP194      0.2293
    140  O         19.9710   33.9420  -29.5280 O.2   194  ASP194     -0.2864
    141  CB        19.4080   31.4120  -27.4670 C.3   194  ASP194      0.1436
    142  CG        18.6480   30.8720  -26.2600 C.2   194  ASP194      0.3671
    143  OD1       18.2010   31.6740  -25.4150 O.co2 194  ASP194     -0.2456
    144  OD2       18.4960   29.6360  -26.1640 O.co2 194  ASP194     -0.2456
@<TRIPOS>BOND
     1   121   120    2
     2   140   139    2
     3   120   119    1
     4   122   123    1
     5   122   119    1
     6   124   123    1
     7   139   138    1
     8   123   125    1
     9   119   118    1
    10   126   127    1
    11   141   138    1
    12   141   142    1
    13   137   138    1
    14   137   128   am
    15   127   128    1
    16   127   130    1
    17   118   109   am
    18   128   129    2
    19   142   144   ar
    20   142   143   ar
    21   109   110    2
    22   109   108    1
    23    66    65    2
    24    94    92    1
    25   130   131    1
    26    69    67    1
    27   131   132    1
    28   107   108    1
    29   108   111    1
    30    74    73    2
    31    65    64    1
    32    65    71   am
    33    92    89    1
    34    92    93    1
    35    64    67    1
    36    64    63    1
    37    67    68    1
    38    70    68    1
    39    73    72    1
    40    72    71    1
    41    72    75    1
    42   132   133    1
    43   133   134    2
    44    89    88    1
    45    89    90    1
    46   111   112    1
    47    76    75    1
    48    57    56    2
    49    91    90    2
    50    88    79   am
    51    80    79    2
    52    77    78    1
    53    63    56   am
    54    79    78    1
    55    90    95   am
    56   134   136    1
    57   134   135    1
    58    56    55    1
    59   112   113    1
    60    78    81    1
    61    59    58    1
    62    59    60    1
    63    19    18    2
    64    20    22    1
    65    20    21    1
    66    20    17    1
    67    58    55    1
    68    95    96    1
    69   113   114    1
    70    61    60   ar
    71    18    17    1
    72    55    54    1
    73    60    62   ar
    74    17    16    1
    75    81    82    1
    76    96    99    1
    77    96    97    1
    78   114   115    2
    79    54    52   am
    80    82    83    1
    81    53    52    2
    82    83    84    1
    83    30    29    1
    84    29    28    1
    85    52    51    1
    86   115   116    1
    87   115   117    1
    88    97    98    2
    89    86    85    1
    90    84    85    2
    91    85    87    1
    92    51    50    1
    93    28    27    1
    94    50    41   am
    95    14    13    1
    96     7     5    1
    97    41    40    1
    98    41    42    2
    99    27    24    1
   100    12    11    2
   101    40    43    1
   102    40    39    1
   103    13    15    1
   104    13    10    1
   105     8     6    1
   106    11    10    1
   107    43    44    1
   108     5     6    1
   109     5     2    1
   110    24    23    1
   111    24    25    1
   112   106   104    1
   113    10     9    1
   114    37    36    1
   115     3     4    2
   116     3     2    1
   117    38    36    1
   118   100   101    1
   119     2     1    1
   120    36    35    1
   121    44    45   ar
   122    44    46   ar
   123    45    47   ar
   124    25    26    2
   125   104   101    1
   126   104   105    1
   127   101   102    1
   128    47    49   ar
   129    46    48   ar
   130    35    32    1
   131   102   103    2
   132    32    31    1
   133    32    33    1
   134    49    48   ar
   135    33    34    2
