@<TRIPOS>MOLECULE
tmp/2q0bB00.pdb
 77 71 0 0 0
SMALL
GASTEIGER

@<TRIPOS>ATOM
      1  N         49.4220   16.7250    7.7670 N.3    20  LEU20      -0.1245
      2  CA        50.1070   17.8690    8.3500 C.3    20  LEU20       0.1561
      3  C         49.2060   18.5010    9.3980 C.2    20  LEU20       0.2260
      4  O         48.1070   18.0040    9.6500 O.2    20  LEU20      -0.2867
      5  CB        50.4550   18.8940    7.2650 C.3    20  LEU20       0.0270
      6  CG        51.3210   18.4250    6.0890 C.3    20  LEU20       0.0019
      7  CD1       51.5510   19.5860    5.1340 C.3    20  LEU20       0.0001
      8  CD2       52.6550   17.8840    6.5890 C.3    20  LEU20       0.0001
      9  N         44.8150   18.3820    4.8950 N.3    23  VAL23      -0.1245
     10  CA        46.0810   18.5530    4.1930 C.3    23  VAL23       0.1561
     11  C         47.0670   17.4640    4.5570 C.2    23  VAL23       0.2260
     12  O         47.1820   17.0920    5.7210 O.2    23  VAL23      -0.2867
     13  CB        46.7110   19.9300    4.5070 C.3    23  VAL23       0.0252
     14  CG1       48.1390   20.0010    3.9800 C.3    23  VAL23       0.0019
     15  CG2       45.8630   21.0300    3.8720 C.3    23  VAL23       0.0019
     16  N         52.5750   19.7870   -0.2920 N.3    43  ALA43      -0.1245
     17  CA        51.4660   19.6670    0.6360 C.3    43  ALA43       0.1562
     18  C         50.2150   19.5180   -0.2320 C.2    43  ALA43       0.2260
     19  O         50.0290   20.2610   -1.2040 O.2    43  ALA43      -0.2867
     20  CB        51.3720   20.9130    1.5010 C.3    43  ALA43       0.0290
     21  N         50.1050   22.3960   -3.2120 N.3    92  VAL92      -0.1231
     22  CA        50.7570   23.6780   -2.9620 C.3    92  VAL92       0.1692
     23  C         52.1420   23.5160   -2.3660 C.2    92  VAL92       0.2592
     24  O         52.5240   22.4180   -1.9650 O.2    92  VAL92      -0.2718
     25  CB        49.9240   24.5420   -1.9980 C.3    92  VAL92       0.0266
     26  CG1       48.5350   24.7470   -2.5680 C.3    92  VAL92       0.0020
     27  CG2       49.8580   23.8810   -0.6260 C.3    92  VAL92       0.0020
     28  N         52.8890   24.6150   -2.3130 N.am   93  ALA93      -0.1966
     29  CA        54.2310   24.6020   -1.7380 C.3    93  ALA93       0.1728
     30  C         54.1370   24.1390   -0.2840 C.2    93  ALA93       0.2616
     31  O         53.1990   24.5000    0.4340 O.2    93  ALA93      -0.2715
     32  CB        54.8460   25.9970   -1.8040 C.3    93  ALA93       0.0334
     33  N         55.1110   23.3400    0.1400 N.am   94  TYR94      -0.1960
     34  CA        55.1440   22.8050    1.4940 C.3    94  TYR94       0.1771
     35  C         56.0000   23.6460    2.4390 C.2    94  TYR94       0.2619
     36  O         57.1920   23.8300    2.1980 O.2    94  TYR94      -0.2715
     37  CB        55.6840   21.3770    1.4490 C.3    94  TYR94       0.0574
     38  CG        56.1560   20.8660    2.7860 C.ar   94  TYR94      -0.0198
     39  CD1       55.2880   20.7950    3.8730 C.ar   94  TYR94      -0.0009
     40  CD2       57.4830   20.4880    2.9760 C.ar   94  TYR94      -0.0009
     41  CE1       55.7300   20.3660    5.1140 C.ar   94  TYR94       0.0417
     42  CE2       57.9360   20.0570    4.2150 C.ar   94  TYR94       0.0417
     43  CZ        57.0560   20.0020    5.2790 C.ar   94  TYR94       0.1957
     44  OH        57.5100   19.6180    6.5180 O.3    94  TYR94      -0.2866
     45  N         55.4020   24.1490    3.5150 N.am   95  ALA95      -0.1977
     46  CA        56.1360   24.9660    4.4800 C.3    95  ALA95       0.1597
     47  C         56.5350   24.1070    5.6790 C.2    95  ALA95       0.2287
     48  O         55.7250   23.8290    6.5670 O.2    95  ALA95      -0.2864
     49  CB        55.2810   26.1440    4.9270 C.3    95  ALA95       0.0319
     50  N         55.5810   24.7880    9.4370 N.3    98  GLY98      -0.1210
     51  CA        54.1840   24.8140    9.8350 C.3    98  GLY98       0.1956
     52  C         53.6140   26.2140    9.9670 C.2    98  GLY98       0.2611
     53  O         54.2640   27.1940    9.6070 O.2    98  GLY98      -0.2717
     54  N         52.3990   26.3180   10.4920 N.am   99  ASN99      -0.1974
     55  CA        51.7620   27.6180   10.6370 C.3    99  ASN99       0.1688
     56  C         52.4270   28.5020   11.6870 C.2    99  ASN99       0.2292
     57  O         53.0170   28.0220   12.6530 O.2    99  ASN99      -0.2864
     58  CB        50.2800   27.4550   10.9660 C.3    99  ASN99       0.1181
     59  CG        50.0550   26.9190   12.3530 C.2    99  ASN99       0.2629
     60  OD1       50.2350   27.6270   13.3380 O.2    99  ASN99      -0.2716
     61  ND2       49.6710   25.6570   12.4400 N.am   99  ASN99      -0.0877
     62  N         51.8700   30.3820    6.8640 N.3   149  LEU149     -0.1245
     63  CA        52.8220   29.2820    6.9120 C.3   149  LEU149      0.1561
     64  C         54.2340   29.8550    6.9060 C.2   149  LEU149      0.2260
     65  O         54.4840   30.9060    6.3070 O.2   149  LEU149     -0.2867
     66  CB        52.6400   28.3520    5.7090 C.3   149  LEU149      0.0270
     67  CG        51.3430   27.5410    5.6130 C.3   149  LEU149      0.0019
     68  CD1       51.3690   26.7260    4.3360 C.3   149  LEU149      0.0001
     69  CD2       51.1820   26.6220    6.8200 C.3   149  LEU149      0.0001
     70  N         45.4490   29.6160    3.1860 N.3   160  ASP160     -0.1239
     71  CA        44.0260   29.4840    3.4900 C.3   160  ASP160      0.1674
     72  C         43.1360   30.4810    2.7650 C.2   160  ASP160      0.2266
     73  O         42.5130   31.3330    3.3930 O.2   160  ASP160     -0.2867
     74  CB        43.8060   29.6120    4.9900 C.3   160  ASP160      0.1410
     75  CG        43.8300   28.2840    5.6840 C.2   160  ASP160      0.3668
     76  OD1       42.8020   27.5820    5.6130 O.co2 160  ASP160     -0.2456
     77  OD2       44.8720   27.9330    6.2840 O.co2 160  ASP160     -0.2456
@<TRIPOS>BOND
     1    21    22    1
     2    22    23    1
     3    22    25    1
     4    26    25    1
     5    23    28   am
     6    23    24    2
     7    28    29    1
     8    25    27    1
     9    32    29    1
    10    29    30    1
    11    19    18    2
    12    16    17    1
    13    30    33   am
    14    30    31    2
    15    18    17    1
    16    33    34    1
    17    17    20    1
    18    37    34    1
    19    37    38    1
    20    34    35    1
    21    36    35    2
    22    35    45   am
    23    72    73    2
    24    72    71    1
    25    38    40   ar
    26    38    39   ar
    27    40    42   ar
    28    70    71    1
    29    71    74    1
    30    45    46    1
    31    15    13    1
    32    39    41   ar
    33    14    13    1
    34    10    13    1
    35    10    11    1
    36    10     9    1
    37    42    43   ar
    38    68    67    1
    39    46    49    1
    40    46    47    1
    41    11    12    2
    42    74    75    1
    43    41    43   ar
    44     7     6    1
    45    43    44    1
    46    67    66    1
    47    67    69    1
    48    76    75   ar
    49    47    48    2
    50    75    77   ar
    51    66    63    1
    52     6     8    1
    53     6     5    1
    54    65    64    2
    55    62    63    1
    56    64    63    1
    57     5     2    1
    58     1     2    1
    59     2     3    1
    60     3     4    2
    61    50    51    1
    62    53    52    2
    63    51    52    1
    64    52    54   am
    65    54    55    1
    66    55    58    1
    67    55    56    1
    68    58    59    1
    69    56    57    2
    70    59    61   am
    71    59    60    2
