@<TRIPOS>MOLECULE
tmp/2q0eA00.pdb
 204 189 0 0 0
SMALL
GASTEIGER

@<TRIPOS>ATOM
      1  N         16.5790   16.4020  -48.8280 N.3    50  PHE50      -0.1227
      2  CA        17.8710   16.5800  -48.1850 C.3    50  PHE50       0.1736
      3  C         17.9890   18.0040  -47.6850 C.2    50  PHE50       0.2596
      4  O         16.9940   18.7450  -47.6620 O.2    50  PHE50      -0.2718
      5  CB        19.0420   16.1380  -49.0910 C.3    50  PHE50       0.0547
      6  CG        19.2010   16.9520  -50.3260 C.ar   50  PHE50      -0.0202
      7  CD1       18.3430   16.7780  -51.4260 C.ar   50  PHE50      -0.0042
      8  CD2       20.2090   17.9000  -50.4060 C.ar   50  PHE50      -0.0042
      9  CE1       18.4970   17.5770  -52.5740 C.ar   50  PHE50      -0.0003
     10  CE2       20.3720   18.7020  -51.5680 C.ar   50  PHE50      -0.0003
     11  CZ        19.5310   18.5290  -52.6430 C.ar   50  PHE50      -0.0000
     12  N         19.1910   18.3970  -47.2770 N.am   51  GLY51      -0.1942
     13  CA        19.4010   19.7380  -46.7240 C.3    51  GLY51       0.2014
     14  C         19.0020   19.7390  -45.2670 C.2    51  GLY51       0.2639
     15  O         18.8540   18.6780  -44.6580 O.2    51  GLY51      -0.2714
     16  N         18.8000   20.9320  -44.7150 N.am   52  SER52      -0.1949
     17  CA        18.6440   21.1300  -43.2720 C.3    52  SER52       0.1924
     18  C         17.4710   20.3660  -42.6970 C.2    52  SER52       0.2314
     19  O         17.5440   19.8770  -41.5760 O.2    52  SER52      -0.2863
     20  CB        18.4790   22.6250  -42.9390 C.3    52  SER52       0.2116
     21  OG        17.2170   23.0850  -43.3820 O.3    52  SER52      -0.2180
     22  N         19.0710   16.9700  -42.1220 N.3    55  VAL55      -0.1231
     23  CA        20.1960   17.0930  -41.1710 C.3    55  VAL55       0.1692
     24  C         19.6710   17.2580  -39.7590 C.2    55  VAL55       0.2592
     25  O         20.1130   16.5730  -38.8200 O.2    55  VAL55      -0.2718
     26  CB        21.1400   18.2870  -41.5590 C.3    55  VAL55       0.0266
     27  CG1       22.2340   18.4960  -40.5350 C.3    55  VAL55       0.0020
     28  CG2       21.7550   18.0670  -42.9420 C.3    55  VAL55       0.0020
     29  N         18.7180   18.1610  -39.6080 N.am   56  TYR56      -0.1976
     30  CA        18.1820   18.4460  -38.2980 C.3    56  TYR56       0.1639
     31  C         16.9950   17.5580  -37.9080 C.2    56  TYR56       0.2290
     32  O         16.7930   17.3060  -36.7410 O.2    56  TYR56      -0.2864
     33  CB        17.7960   19.9160  -38.1850 C.3    56  TYR56       0.0560
     34  CG        18.9540   20.9020  -38.2280 C.ar   56  TYR56      -0.0198
     35  CD1       20.1520   20.6720  -37.5310 C.ar   56  TYR56      -0.0009
     36  CD2       18.8360   22.0800  -38.9480 C.ar   56  TYR56      -0.0009
     37  CE1       21.1980   21.5850  -37.5930 C.ar   56  TYR56       0.0417
     38  CE2       19.8550   22.9730  -39.0200 C.ar   56  TYR56       0.0417
     39  CZ        21.0290   22.7400  -38.3310 C.ar   56  TYR56       0.1957
     40  OH        22.0100   23.6900  -38.4250 O.3    56  TYR56      -0.2866
     41  N         14.2770   28.8160  -44.1130 N.3    63  SER63      -0.1202
     42  CA        14.9590   27.7240  -44.7850 C.3    63  SER63       0.2020
     43  C         14.0310   27.1270  -45.8490 C.2    63  SER63       0.2618
     44  O         12.8150   26.9330  -45.6230 O.2    63  SER63      -0.2717
     45  CB        15.4000   26.6360  -43.7870 C.3    63  SER63       0.2103
     46  OG        16.4400   27.0920  -42.9350 O.3    63  SER63      -0.2182
     47  N         14.6090   26.8660  -47.0210 N.am   64  ASP64      -0.1973
     48  CA        13.8960   26.1930  -48.0960 C.3    64  ASP64       0.1709
     49  C         13.7780   24.6830  -47.7950 C.2    64  ASP64       0.2293
     50  O         14.1670   24.2350  -46.7150 O.2    64  ASP64      -0.2864
     51  CB        14.5900   26.4770  -49.4480 C.3    64  ASP64       0.1436
     52  CG        16.0500   25.9440  -49.5320 C.2    64  ASP64       0.3671
     53  OD1       16.6230   26.0180  -50.6450 O.co2  64  ASP64      -0.2456
     54  OD2       16.6220   25.4430  -48.5280 O.co2  64  ASP64      -0.2456
     55  N         15.0920   21.0890  -49.7860 N.3    66  ASP66      -0.1239
     56  CA        15.8940   20.5950  -50.9060 C.3    66  ASP66       0.1674
     57  C         15.3430   19.2610  -51.3820 C.2    66  ASP66       0.2266
     58  O         15.1980   18.3350  -50.6060 O.2    66  ASP66      -0.2867
     59  CB        17.3630   20.4520  -50.5080 C.3    66  ASP66       0.1410
     60  CG        18.0520   21.7890  -50.2970 C.2    66  ASP66       0.3668
     61  OD1       18.3240   22.4850  -51.2950 O.co2  66  ASP66      -0.2456
     62  OD2       18.3360   22.1450  -49.1350 O.co2  66  ASP66      -0.2456
     63  N         27.2910   25.0150  -60.5990 N.3   119  ARG119     -0.1245
     64  CA        27.9090   23.7330  -60.9990 C.3   119  ARG119      0.1563
     65  C         26.8520   22.6360  -61.2460 C.2   119  ARG119      0.2260
     66  O         26.9770   21.8230  -62.1790 O.2   119  ARG119     -0.2867
     67  CB        28.9220   23.2730  -59.9340 C.3   119  ARG119      0.0307
     68  CG        29.7010   21.9700  -60.2690 C.3   119  ARG119      0.0489
     69  CD        31.0030   21.8240  -59.4410 C.3   119  ARG119      0.2205
     70  NE        30.8150   22.1410  -58.0210 N.pl3 119  ARG119     -0.0865
     71  CZ        30.3520   21.2820  -57.1110 C.cat 119  ARG119      0.5346
     72  NH1       30.0220   20.0400  -57.4620 N.pl3 119  ARG119      0.1354
     73  NH2       30.2080   21.6730  -55.8500 N.pl3 119  ARG119      0.1354
     74  N         21.4140   12.9650  -58.5940 N.3   139  ARG139     -0.1245
     75  CA        22.5970   13.1060  -57.7850 C.3   139  ARG139      0.1563
     76  C         22.3030   12.5110  -56.4330 C.2   139  ARG139      0.2260
     77  O         21.2320   12.7400  -55.8740 O.2   139  ARG139     -0.2867
     78  CB        23.0150   14.5700  -57.7080 C.3   139  ARG139      0.0307
     79  CG        23.6160   15.0520  -59.0370 C.3   139  ARG139      0.0489
     80  CD        23.9450   16.5280  -58.9610 C.3   139  ARG139      0.2205
     81  NE        24.7960   16.7980  -57.7950 N.pl3 139  ARG139     -0.0865
     82  CZ        26.1260   16.6880  -57.7660 C.cat 139  ARG139      0.5346
     83  NH1       26.8070   16.3330  -58.8610 N.pl3 139  ARG139      0.1354
     84  NH2       26.7750   16.9670  -56.6370 N.pl3 139  ARG139      0.1354
     85  N         23.9280   15.1290  -52.3450 N.3   142  GLY142     -0.1225
     86  CA        23.1370   15.8810  -51.3670 C.3   142  GLY142      0.1811
     87  C         22.3690   15.0710  -50.3240 C.2   142  GLY142      0.2280
     88  O         22.3920   15.4010  -49.1220 O.2   142  GLY142     -0.2866
     89  N         25.4270   13.4270  -48.0450 N.3   145  ASN145     -0.1225
     90  CA        25.9980   14.2860  -47.0050 C.3   145  ASN145      0.1785
     91  C         24.9990   14.7080  -45.9440 C.2   145  ASN145      0.2597
     92  O         25.3590   14.8580  -44.7830 O.2   145  ASN145     -0.2718
     93  CB        26.8220   15.4590  -47.5770 C.3   145  ASN145      0.1169
     94  CG        25.9820   16.5000  -48.3240 C.2   145  ASN145      0.2627
     95  OD1       24.9280   16.9500  -47.8560 O.2   145  ASN145     -0.2716
     96  ND2       26.4960   16.9430  -49.4540 N.am  145  ASN145     -0.0877
     97  N         23.7310   14.8420  -46.3250 N.am  146  SER146     -0.1952
     98  CA        22.6800   15.1800  -45.3620 C.3   146  SER146      0.1924
     99  C         22.3890   14.0140  -44.4440 C.2   146  SER146      0.2314
    100  O         22.1010   14.2300  -43.2770 O.2   146  SER146     -0.2863
    101  CB        21.3600   15.6090  -46.0580 C.3   146  SER146      0.2116
    102  OG        21.5470   16.6530  -47.0080 O.3   146  SER146     -0.2180
    103  N         24.7710   28.6710  -37.7670 N.3   167  LYS167     -0.1245
    104  CA        24.1050   29.0100  -39.0300 C.3   167  LYS167      0.1561
    105  C         23.4790   30.4110  -39.0250 C.2   167  LYS167      0.2260
    106  O         23.5970   31.1590  -39.9970 O.2   167  LYS167     -0.2867
    107  CB        23.0480   27.9590  -39.4400 C.3   167  LYS167      0.0271
    108  CG        22.3810   28.3050  -40.7670 C.3   167  LYS167      0.0035
    109  CD        21.6230   27.1660  -41.4330 C.3   167  LYS167      0.0206
    110  CE        20.3140   26.8420  -40.7240 C.3   167  LYS167      0.1093
    111  NZ        19.8280   25.5040  -41.1810 N.3   167  LYS167     -0.1314
    112  N         25.0170   34.0210  -41.0610 N.3   171  LYS171     -0.1245
    113  CA        24.1600   34.8640  -41.8980 C.3   171  LYS171      0.1561
    114  C         24.0820   36.3160  -41.4090 C.2   171  LYS171      0.2260
    115  O         24.1400   37.2420  -42.2260 O.2   171  LYS171     -0.2867
    116  CB        22.7640   34.2690  -41.9670 C.3   171  LYS171      0.0271
    117  CG        22.7400   32.9100  -42.6110 C.3   171  LYS171      0.0035
    118  CD        21.3510   32.4190  -42.9000 C.3   171  LYS171      0.0206
    119  CE        21.4300   31.1060  -43.6680 C.3   171  LYS171      0.1093
    120  NZ        20.1320   30.3270  -43.7230 N.3   171  LYS171     -0.1314
    121  N         27.9900   33.8060  -44.2320 N.3   176  ASN176     -0.1240
    122  CA        27.2650   32.7530  -44.9660 C.3   176  ASN176      0.1653
    123  C         27.1390   33.1400  -46.4020 C.2   176  ASN176      0.2266
    124  O         26.8050   34.2900  -46.7100 O.2   176  ASN176     -0.2867
    125  CB        25.8670   32.5220  -44.3520 C.3   176  ASN176      0.1155
    126  CG        25.2250   31.1920  -44.7630 C.2   176  ASN176      0.2627
    127  OD1       24.8380   31.0040  -45.9100 O.2   176  ASN176     -0.2716
    128  ND2       25.0740   30.2810  -43.8080 N.am  176  ASN176     -0.0877
    129  N         28.9370   28.3860  -47.3150 N.3   185  THR185     -0.1203
    130  CA        27.5290   27.9680  -47.2100 C.3   185  THR185      0.1994
    131  C         27.2580   27.4120  -45.8350 C.2   185  THR185      0.2619
    132  O         28.1890   27.1310  -45.0820 O.2   185  THR185     -0.2717
    133  CB        27.2110   26.8450  -48.1780 C.3   185  THR185      0.1784
    134  OG1       28.0040   25.6890  -47.8290 O.3   185  THR185     -0.2211
    135  CG2       27.4960   27.2920  -49.6190 C.3   185  THR185      0.0376
    136  N         25.9750   27.2330  -45.5280 N.am  186  SER186     -0.1937
    137  CA        25.5140   26.6160  -44.2840 C.3   186  SER186      0.2055
    138  C         26.0270   25.1910  -44.1210 C.2   186  SER186      0.2643
    139  O         26.4040   24.7750  -43.0060 O.2   186  SER186     -0.2714
    140  CB        23.9770   26.6440  -44.2420 C.3   186  SER186      0.2130
    141  OG        23.5470   27.9880  -44.0920 O.3   186  SER186     -0.2179
    142  N         26.0570   24.4650  -45.2420 N.am  187  TYR187     -0.1973
    143  CA        26.6690   23.1530  -45.3330 C.3   187  TYR187      0.1639
    144  C         28.1180   23.1790  -44.7980 C.2   187  TYR187      0.2290
    145  O         28.4820   22.3720  -43.9260 O.2   187  TYR187     -0.2864
    146  CB        26.5770   22.6410  -46.7840 C.3   187  TYR187      0.0560
    147  CG        27.3130   21.3380  -47.0610 C.ar  187  TYR187     -0.0198
    148  CD1       27.0660   20.1890  -46.2970 C.ar  187  TYR187     -0.0009
    149  CD2       28.2580   21.2630  -48.0760 C.ar  187  TYR187     -0.0009
    150  CE1       27.7460   19.0120  -46.5350 C.ar  187  TYR187      0.0417
    151  CE2       28.9240   20.0870  -48.3410 C.ar  187  TYR187      0.0417
    152  CZ        28.6650   18.9660  -47.5600 C.ar  187  TYR187      0.1957
    153  OH        29.3220   17.7910  -47.8290 O.3   187  TYR187     -0.2866
    154  N         28.2080   23.5690  -41.0180 N.3   190  ASN190     -0.1240
    155  CA        27.9060   22.2490  -40.4440 C.3   190  ASN190      0.1653
    156  C         29.0870   21.3020  -40.4470 C.2   190  ASN190      0.2266
    157  O         29.3260   20.6320  -39.4780 O.2   190  ASN190     -0.2867
    158  CB        26.7510   21.5620  -41.1670 C.3   190  ASN190      0.1155
    159  CG        25.3890   22.0360  -40.6940 C.2   190  ASN190      0.2627
    160  OD1       24.3800   21.8170  -41.3800 O.2   190  ASN190     -0.2716
    161  ND2       25.3440   22.6880  -39.5320 N.am  190  ASN190     -0.0877
    162  N         35.1380   18.1450  -48.8540 N.3   295  ASP295     -0.1239
    163  CA        33.8170   17.5410  -48.9880 C.3   295  ASP295      0.1674
    164  C         33.9400   16.0150  -48.7900 C.2   295  ASP295      0.2266
    165  O         34.8290   15.3940  -49.3560 O.2   295  ASP295     -0.2867
    166  CB        33.1950   17.8660  -50.3370 C.3   295  ASP295      0.1410
    167  CG        31.7140   17.5150  -50.3800 C.2   295  ASP295      0.3668
    168  OD1       31.3880   16.3940  -50.8070 O.co2 295  ASP295     -0.2456
    169  OD2       30.8960   18.3360  -49.9160 O.co2 295  ASP295     -0.2456
    170  N         32.4040   14.4630  -52.7900 N.3   298  GLU298     -0.1245
    171  CA        32.8150   14.9410  -54.1210 C.3   298  GLU298      0.1567
    172  C         34.3250   15.0130  -54.2090 C.2   298  GLU298      0.2260
    173  O         34.9500   15.6520  -53.3560 O.2   298  GLU298     -0.2867
    174  CB        32.3040   16.3620  -54.3790 C.3   298  GLU298      0.0388
    175  CG        30.8210   16.5890  -54.2390 C.3   298  GLU298      0.1160
    176  CD        30.0930   16.2860  -55.5210 C.2   298  GLU298      0.3649
    177  OE1       30.7170   16.2340  -56.6060 O.co2 298  GLU298     -0.2457
    178  OE2       28.8820   16.0790  -55.4410 O.co2 298  GLU298     -0.2457
    179  N         36.9050   18.6460  -53.7390 N.3   301  LEU301     -0.1245
    180  CA        36.0470   19.8270  -53.5500 C.3   301  LEU301      0.1561
    181  C         36.3700   20.5160  -52.2310 C.2   301  LEU301      0.2260
    182  O         36.1100   19.9720  -51.1750 O.2   301  LEU301     -0.2867
    183  CB        34.5570   19.4530  -53.5760 C.3   301  LEU301      0.0270
    184  CG        33.5480   20.5860  -53.3430 C.3   301  LEU301      0.0019
    185  CD1       33.6760   21.7200  -54.3940 C.3   301  LEU301      0.0001
    186  CD2       32.1160   20.0100  -53.3210 C.3   301  LEU301      0.0001
    187  N         35.1030   23.0030  -49.8780 N.3   303  VAL303     -0.1245
    188  CA        33.9030   23.7330  -49.5020 C.3   303  VAL303      0.1561
    189  C         34.2590   25.1790  -49.1140 C.2   303  VAL303      0.2260
    190  O         33.4130   26.0750  -49.2180 O.2   303  VAL303     -0.2867
    191  CB        33.1000   22.9790  -48.3870 C.3   303  VAL303      0.0252
    192  CG1       31.7970   23.7210  -48.0190 C.3   303  VAL303      0.0019
    193  CG2       32.7820   21.5130  -48.8570 C.3   303  VAL303      0.0019
    194  N         36.3590   26.9710  -50.8660 N.3   305  ARG305     -0.1245
    195  CA        37.0690   27.3750  -52.0850 C.3   305  ARG305      0.1563
    196  C         36.9480   28.8840  -52.4090 C.2   305  ARG305      0.2260
    197  O         37.8050   29.4370  -53.1200 O.2   305  ARG305     -0.2867
    198  CB        36.5990   26.5340  -53.2590 C.3   305  ARG305      0.0307
    199  CG        35.1940   26.8930  -53.7080 C.3   305  ARG305      0.0489
    200  CD        34.6060   25.8910  -54.6580 C.3   305  ARG305      0.2205
    201  NE        33.1650   26.1260  -54.7730 N.pl3 305  ARG305     -0.0865
    202  CZ        32.2630   25.7430  -53.8680 C.cat 305  ARG305      0.5346
    203  NH1       32.6270   25.0670  -52.7880 N.pl3 305  ARG305      0.1354
    204  NH2       30.9820   26.0170  -54.0530 N.pl3 305  ARG305      0.1354
@<TRIPOS>BOND
     1    66    65    2
     2    65    64    1
     3    64    63    1
     4    64    67    1
     5    68    67    1
     6    68    69    1
     7    69    70    1
     8    79    80    1
     9    79    78    1
    10    80    81    1
    11    83    82    1
    12    74    75    1
    13    70    71    2
    14    81    82    2
    15    75    78    1
    16    75    76    1
    17    82    84    1
    18    72    71    1
    19    71    73    1
    20   177   176   ar
    21    76    77    2
    22   176   178   ar
    23   176   175    1
    24   201   200    1
    25   201   202    2
    26   200   199    1
    27   185   184    1
    28   174   175    1
    29   174   171    1
    30   172   171    1
    31   172   173    2
    32   171   170    1
    33   204   202    1
    34   202   203    1
    35   179   180    1
    36   199   198    1
    37   183   180    1
    38   183   184    1
    39   180   181    1
    40   184   186    1
    41   198   195    1
    42   197   196    2
    43    11     9   ar
    44    11    10   ar
    45     9     7   ar
    46   196   195    1
    47    85    86    1
    48   181   182    2
    49   195   194    1
    50    10     8   ar
    51     7     6   ar
    52    57    56    1
    53    57    58    2
    54    86    87    1
    55    61    60   ar
    56    56    59    1
    57    56    55    1
    58   168   167   ar
    59    53    52   ar
    60    59    60    1
    61     8     6   ar
    62   167   166    1
    63   167   169   ar
    64   166   163    1
    65     6     5    1
    66    87    88    2
    67    60    62   ar
    68   187   188    1
    69   135   133    1
    70    52    51    1
    71    52    54   ar
    72   188   189    1
    73   188   191    1
    74    96    94   am
    75    51    48    1
    76   165   164    2
    77   190   189    2
    78     5     2    1
    79   163   162    1
    80   163   164    1
    81   193   191    1
    82     1     2    1
    83   191   192    1
    84   151   149   ar
    85   151   152   ar
    86    94    95    2
    87    94    93    1
    88     2     3    1
    89   133   134    1
    90   133   130    1
    91    48    49    1
    92    48    47    1
    93   149   147   ar
    94    89    90    1
    95   153   152    1
    96    49    50    2
    97     3     4    2
    98     3    12   am
    99    93    90    1
   100   152   150   ar
   101   129   130    1
   102    12    13    1
   103   130   131    1
   104   147   146    1
   105   147   148   ar
   106    47    43   am
   107   102   101    1
   108    90    91    1
   109   146   143    1
   110    13    14    1
   111   124   123    2
   112   150   148   ar
   113   123   122    1
   114    97    91   am
   115    97    98    1
   116   101    98    1
   117    91    92    2
   118   127   126    2
   119    43    44    2
   120    43    42    1
   121   131   136   am
   122   131   132    2
   123   136   137    1
   124    98    99    1
   125   143   142    1
   126   143   144    1
   127    14    16   am
   128    14    15    2
   129   142   138   am
   130   122   125    1
   131   122   121    1
   132   144   145    2
   133    42    41    1
   134    42    45    1
   135   126   125    1
   136   126   128   am
   137    16    17    1
   138    99   100    2
   139   137   140    1
   140   137   138    1
   141   140   141    1
   142   138   139    2
   143    45    46    1
   144   120   119    1
   145   119   118    1
   146    21    20    1
   147    17    20    1
   148    17    18    1
   149    28    26    1
   150   118   117    1
   151    18    19    2
   152   117   116    1
   153   115   114    2
   154    22    23    1
   155   116   113    1
   156   113   114    1
   157   113   112    1
   158    26    23    1
   159    26    27    1
   160   109   108    1
   161   109   110    1
   162   160   159    2
   163   111   110    1
   164    23    24    1
   165   158   159    1
   166   158   155    1
   167   154   155    1
   168   108   107    1
   169   159   161   am
   170   156   155    1
   171   156   157    2
   172   106   105    2
   173    24    29   am
   174    24    25    2
   175    29    30    1
   176   107   104    1
   177   104   105    1
   178   104   103    1
   179    38    36   ar
   180    38    39   ar
   181    36    34   ar
   182    40    39    1
   183    39    37   ar
   184    30    33    1
   185    30    31    1
   186    34    33    1
   187    34    35   ar
   188    31    32    2
   189    37    35   ar
