@<TRIPOS>MOLECULE
tmp/2q0fA00.pdb
 218 200 0 0 0
SMALL
GASTEIGER

@<TRIPOS>ATOM
      1  N         17.3330   16.2920  -48.5080 N.3    44  PHE44      -0.1227
      2  CA        18.6810   16.4450  -47.9670 C.3    44  PHE44       0.1736
      3  C         18.8740   17.8440  -47.3810 C.2    44  PHE44       0.2596
      4  O         17.9040   18.6140  -47.2890 O.2    44  PHE44      -0.2718
      5  CB        19.7650   15.9860  -48.9760 C.3    44  PHE44       0.0547
      6  CG        19.9860   16.9080  -50.1710 C.ar   44  PHE44      -0.0202
      7  CD1       19.1310   16.8750  -51.2830 C.ar   44  PHE44      -0.0042
      8  CD2       21.1010   17.7420  -50.2170 C.ar   44  PHE44      -0.0042
      9  CE1       19.3440   17.7110  -52.3820 C.ar   44  PHE44      -0.0003
     10  CE2       21.3420   18.5870  -51.3170 C.ar   44  PHE44      -0.0003
     11  CZ        20.4680   18.5820  -52.3960 C.ar   44  PHE44      -0.0000
     12  N         20.0790   18.1780  -46.9360 N.am   45  GLY45      -0.1942
     13  CA        20.2950   19.4930  -46.3270 C.3    45  GLY45       0.2014
     14  C         19.7820   19.5830  -44.9040 C.2    45  GLY45       0.2639
     15  O         19.4990   18.5660  -44.2760 O.2    45  GLY45      -0.2714
     16  N         19.6230   20.7970  -44.3900 N.am   46  SER46      -0.1949
     17  CA        19.4120   21.0010  -42.9530 C.3    46  SER46       0.1924
     18  C         18.2130   20.2890  -42.3430 C.2    46  SER46       0.2314
     19  O         18.2930   19.8480  -41.2000 O.2    46  SER46      -0.2863
     20  CB        19.3120   22.4820  -42.6350 C.3    46  SER46       0.2116
     21  OG        18.0500   22.9730  -43.0120 O.3    46  SER46      -0.2180
     22  N         19.6520   16.9520  -41.8000 N.3    49  VAL49      -0.1245
     23  CA        20.7290   17.0110  -40.8290 C.3    49  VAL49       0.1561
     24  C         20.1440   17.1630  -39.4270 C.2    49  VAL49       0.2260
     25  O         20.3970   16.3370  -38.5470 O.2    49  VAL49      -0.2867
     26  CB        21.7390   18.1650  -41.1760 C.3    49  VAL49       0.0252
     27  CG1       22.6730   18.4820  -40.0050 C.3    49  VAL49       0.0019
     28  CG2       22.5380   17.8270  -42.4270 C.3    49  VAL49       0.0019
     29  N         13.3490   30.5180  -42.2700 N.3    56  GLY56      -0.1210
     30  CA        14.5400   31.1240  -42.8990 C.3    56  GLY56       0.1956
     31  C         15.3760   30.0790  -43.6290 C.2    56  GLY56       0.2613
     32  O         16.4440   30.3850  -44.2080 O.2    56  GLY56      -0.2717
     33  N         14.9030   28.8330  -43.5680 N.am   57  SER57      -0.1938
     34  CA        15.5400   27.7380  -44.2580 C.3    57  SER57       0.2055
     35  C         14.5660   27.2140  -45.3020 C.2    57  SER57       0.2643
     36  O         13.3380   27.1710  -45.0740 O.2    57  SER57      -0.2714
     37  CB        15.9800   26.6350  -43.2800 C.3    57  SER57       0.2130
     38  OG        17.1720   26.9990  -42.5840 O.3    57  SER57      -0.2179
     39  N         15.1400   26.8720  -46.4580 N.am   58  ASP58      -0.1971
     40  CA        14.4750   26.2500  -47.5840 C.3    58  ASP58       0.1709
     41  C         14.4080   24.7240  -47.3800 C.2    58  ASP58       0.2293
     42  O         14.6680   24.2470  -46.2930 O.2    58  ASP58      -0.2864
     43  CB        15.2510   26.6270  -48.8640 C.3    58  ASP58       0.1436
     44  CG        16.7140   26.0770  -48.9000 C.2    58  ASP58       0.3671
     45  OD1       17.2780   26.0380  -50.0210 O.co2  58  ASP58      -0.2456
     46  OD2       17.3010   25.6820  -47.8540 O.co2  58  ASP58      -0.2456
     47  N         15.8990   21.1270  -49.4760 N.3    60  ASP60      -0.1239
     48  CA        16.7560   20.6520  -50.5450 C.3    60  ASP60       0.1674
     49  C         16.2430   19.2620  -50.9620 C.2    60  ASP60       0.2266
     50  O         16.0770   18.3890  -50.1250 O.2    60  ASP60      -0.2867
     51  CB        18.2330   20.6140  -50.0890 C.3    60  ASP60       0.1410
     52  CG        18.8040   22.0220  -49.7280 C.2    60  ASP60       0.3668
     53  OD1       19.2900   22.7550  -50.6080 O.co2  60  ASP60      -0.2456
     54  OD2       18.7920   22.4100  -48.5420 O.co2  60  ASP60      -0.2456
     55  N         28.5320   24.8910  -60.2240 N.3   113  ARG113     -0.1245
     56  CA        29.1340   23.5780  -60.4830 C.3   113  ARG113      0.1563
     57  C         28.0490   22.5260  -60.6470 C.2   113  ARG113      0.2260
     58  O         28.0880   21.7410  -61.5930 O.2   113  ARG113     -0.2867
     59  CB        29.9840   23.1900  -59.2900 C.3   113  ARG113      0.0307
     60  CG        31.1170   22.1980  -59.5900 C.3   113  ARG113      0.0489
     61  CD        32.0790   22.1040  -58.3920 C.3   113  ARG113      0.2205
     62  NE        31.3400   22.1220  -57.1250 N.pl3 113  ARG113     -0.0865
     63  CZ        30.7810   21.0560  -56.5610 C.cat 113  ARG113      0.5346
     64  NH1       30.8590   19.8620  -57.1440 N.pl3 113  ARG113      0.1354
     65  NH2       30.1370   21.1870  -55.4060 N.pl3 113  ARG113      0.1354
     66  N         22.3820   13.2310  -58.3480 N.3   133  ARG133     -0.1245
     67  CA        23.5330   13.2800  -57.4540 C.3   133  ARG133      0.1563
     68  C         23.2240   12.5880  -56.1320 C.2   133  ARG133      0.2260
     69  O         22.0960   12.6910  -55.6300 O.2   133  ARG133     -0.2867
     70  CB        24.0040   14.7330  -57.2670 C.3   133  ARG133      0.0307
     71  CG        24.4000   15.3840  -58.6040 C.3   133  ARG133      0.0489
     72  CD        24.8990   16.8060  -58.5080 C.3   133  ARG133      0.2205
     73  NE        25.8360   16.9280  -57.3920 N.pl3 133  ARG133     -0.0865
     74  CZ        27.1600   16.7770  -57.4660 C.cat 133  ARG133      0.5346
     75  NH1       27.7520   16.5230  -58.6310 N.pl3 133  ARG133      0.1354
     76  NH2       27.8890   16.8880  -56.3570 N.pl3 133  ARG133      0.1354
     77  N         25.7950   12.5680  -53.5010 N.3   135  ASN135     -0.1225
     78  CA        26.6340   13.1820  -52.4560 C.3   135  ASN135      0.1785
     79  C         25.8510   14.1060  -51.5460 C.2   135  ASN135      0.2597
     80  O         26.1370   14.1980  -50.3290 O.2   135  ASN135     -0.2718
     81  CB        27.8630   13.9160  -53.0400 C.3   135  ASN135      0.1169
     82  CG        28.8760   12.9570  -53.7000 C.2   135  ASN135      0.2627
     83  OD1       29.0340   11.8030  -53.2880 O.2   135  ASN135     -0.2716
     84  ND2       29.5320   13.4280  -54.7510 N.am  135  ASN135     -0.0877
     85  N         24.8600   14.7770  -52.1320 N.am  136  GLY136     -0.1957
     86  CA        23.9330   15.5950  -51.3600 C.3   136  GLY136      0.1869
     87  C         23.2340   14.8290  -50.2590 C.2   136  GLY136      0.2309
     88  O         23.1890   15.2860  -49.1140 O.2   136  GLY136     -0.2863
     89  N         26.1210   13.1440  -47.6820 N.3   139  ASN139     -0.1225
     90  CA        26.7160   14.0010  -46.6300 C.3   139  ASN139      0.1785
     91  C         25.7000   14.4920  -45.5990 C.2   139  ASN139      0.2597
     92  O         26.0450   14.7330  -44.4280 O.2   139  ASN139     -0.2718
     93  CB        27.6750   15.1050  -47.1800 C.3   139  ASN139      0.1169
     94  CG        26.9450   16.2360  -47.9280 C.2   139  ASN139      0.2627
     95  OD1       25.9920   16.8530  -47.4230 O.2   139  ASN139     -0.2716
     96  ND2       27.4020   16.5140  -49.1290 N.am  139  ASN139     -0.0877
     97  N         24.4360   14.5800  -45.9860 N.am  140  SER140     -0.1952
     98  CA        23.4280   15.0120  -45.0130 C.3   140  SER140      0.1924
     99  C         23.1570   13.8930  -44.0350 C.2   140  SER140      0.2314
    100  O         22.9130   14.1510  -42.8600 O.2   140  SER140     -0.2863
    101  CB        22.1140   15.4350  -45.6660 C.3   140  SER140      0.2116
    102  OG        22.3120   16.4200  -46.6560 O.3   140  SER140     -0.2180
    103  N         26.0640   13.7390  -41.7680 N.3   143  LEU143     -0.1245
    104  CA        26.0040   14.7810  -40.7110 C.3   143  LEU143      0.1561
    105  C         24.8670   14.4590  -39.7750 C.2   143  LEU143      0.2260
    106  O         25.0100   14.6200  -38.5800 O.2   143  LEU143     -0.2867
    107  CB        25.8950   16.2080  -41.2780 C.3   143  LEU143      0.0270
    108  CG        27.0780   16.6270  -42.1610 C.3   143  LEU143      0.0019
    109  CD1       26.7150   17.5900  -43.3180 C.3   143  LEU143      0.0001
    110  CD2       28.2030   17.1810  -41.2900 C.3   143  LEU143      0.0001
    111  N         25.3910   28.6550  -37.5380 N.3   161  LYS161     -0.1245
    112  CA        24.8120   28.9870  -38.8180 C.3   161  LYS161      0.1561
    113  C         24.1930   30.3680  -38.8190 C.2   161  LYS161      0.2260
    114  O         24.4430   31.1570  -39.7060 O.2   161  LYS161     -0.2867
    115  CB        23.7660   27.9670  -39.2430 C.3   161  LYS161      0.0271
    116  CG        23.4670   28.0770  -40.7140 C.3   161  LYS161      0.0035
    117  CD        22.1380   27.5240  -41.1030 C.3   161  LYS161      0.0206
    118  CE        21.9240   26.1340  -40.6120 C.3   161  LYS161      0.1093
    119  NZ        20.5370   25.7830  -40.9640 N.3   161  LYS161     -0.1314
    120  N         25.3020   33.9270  -41.1310 N.3   165  LYS165     -0.1245
    121  CA        24.4820   34.7570  -42.0120 C.3   165  LYS165      0.1561
    122  C         24.5030   36.1910  -41.4910 C.2   165  LYS165      0.2260
    123  O         24.6590   37.1440  -42.2490 O.2   165  LYS165     -0.2867
    124  CB        23.0340   34.2760  -42.0430 C.3   165  LYS165      0.0271
    125  CG        22.8100   32.7730  -42.1040 C.3   165  LYS165      0.0035
    126  CD        22.6120   32.2900  -43.5060 C.3   165  LYS165      0.0206
    127  CE        22.4460   30.7910  -43.5130 C.3   165  LYS165      0.1093
    128  NZ        21.0260   30.4000  -43.2150 N.3   165  LYS165     -0.1314
    129  N         28.5040   33.6910  -44.1970 N.3   170  ASN170     -0.1240
    130  CA        27.8080   32.6390  -44.9610 C.3   170  ASN170      0.1653
    131  C         27.7610   32.9650  -46.4410 C.2   170  ASN170      0.2266
    132  O         27.4830   34.1060  -46.8140 O.2   170  ASN170     -0.2867
    133  CB        26.3890   32.4380  -44.4190 C.3   170  ASN170      0.1155
    134  CG        25.8080   31.0750  -44.7490 C.2   170  ASN170      0.2627
    135  OD1       25.1450   30.8910  -45.7550 O.2   170  ASN170     -0.2716
    136  ND2       25.9980   30.1340  -43.8570 N.am  170  ASN170     -0.0877
    137  N         25.5980   32.6600  -48.3650 N.3   172  SER172     -0.1217
    138  CA        24.2630   33.1870  -48.7490 C.3   172  SER172      0.1889
    139  C         24.2320   34.7140  -48.8620 C.2   172  SER172      0.2288
    140  O         23.3330   35.2670  -49.4670 O.2   172  SER172     -0.2866
    141  CB        23.1950   32.7340  -47.7410 C.3   172  SER172      0.2089
    142  OG        23.5840   33.0760  -46.4190 O.3   172  SER172     -0.2183
    143  N         29.5770   28.1440  -47.2650 N.3   179  THR179     -0.1203
    144  CA        28.1790   27.7020  -47.2290 C.3   179  THR179      0.1994
    145  C         27.8290   27.3050  -45.8090 C.2   179  THR179      0.2619
    146  O         28.7350   27.0660  -45.0080 O.2   179  THR179     -0.2717
    147  CB        27.8940   26.4670  -48.1080 C.3   179  THR179      0.1784
    148  OG1       28.7920   25.4220  -47.7520 O.3   179  THR179     -0.2211
    149  CG2       28.0400   26.7710  -49.5790 C.3   179  THR179      0.0376
    150  N         26.5240   27.2380  -45.5000 N.am  180  SER180     -0.1937
    151  CA        26.0350   26.6130  -44.2650 C.3   180  SER180      0.2055
    152  C         26.5810   25.1910  -44.0860 C.2   180  SER180      0.2643
    153  O         26.9080   24.7890  -42.9640 O.2   180  SER180     -0.2714
    154  CB        24.5190   26.5330  -44.2760 C.3   180  SER180      0.2130
    155  OG        23.9490   27.7100  -43.7730 O.3   180  SER180     -0.2179
    156  N         26.6690   24.4440  -45.1880 N.am  181  TYR181     -0.1973
    157  CA        27.2330   23.1090  -45.1860 C.3   181  TYR181      0.1639
    158  C         28.6760   23.1270  -44.6860 C.2   181  TYR181      0.2290
    159  O         29.0410   22.3270  -43.8310 O.2   181  TYR181     -0.2864
    160  CB        27.1470   22.5290  -46.5840 C.3   181  TYR181      0.0560
    161  CG        27.9490   21.2610  -46.8470 C.ar  181  TYR181     -0.0198
    162  CD1       27.7520   20.1100  -46.1000 C.ar  181  TYR181     -0.0009
    163  CD2       28.8540   21.2050  -47.8880 C.ar  181  TYR181     -0.0009
    164  CE1       28.4630   18.9530  -46.3600 C.ar  181  TYR181      0.0417
    165  CE2       29.5600   20.0520  -48.1610 C.ar  181  TYR181      0.0417
    166  CZ        29.3620   18.9360  -47.3870 C.ar  181  TYR181      0.1957
    167  OH        30.0610   17.7960  -47.6590 O.3   181  TYR181     -0.2866
    168  N         28.7600   23.4440  -40.8780 N.3   184  ASN184     -0.1240
    169  CA        28.4510   22.1400  -40.2560 C.3   184  ASN184      0.1653
    170  C         29.6450   21.2360  -40.2450 C.2   184  ASN184      0.2266
    171  O         29.8510   20.4950  -39.2940 O.2   184  ASN184     -0.2867
    172  CB        27.3490   21.3560  -40.9890 C.3   184  ASN184      0.1155
    173  CG        25.9510   21.8140  -40.6340 C.2   184  ASN184      0.2627
    174  OD1       25.0160   21.6970  -41.4490 O.2   184  ASN184     -0.2716
    175  ND2       25.7900   22.3430  -39.4410 N.am  184  ASN184     -0.0877
    176  N         35.9460   17.8730  -48.6480 N.3   289  ASP289     -0.1239
    177  CA        34.6180   17.3250  -48.8320 C.3   289  ASP289      0.1674
    178  C         34.6990   15.8220  -48.6220 C.2   289  ASP289      0.2266
    179  O         35.5830   15.1750  -49.2030 O.2   289  ASP289     -0.2867
    180  CB        34.0310   17.6720  -50.1850 C.3   289  ASP289      0.1410
    181  CG        32.5520   17.3620  -50.2590 C.2   289  ASP289      0.3668
    182  OD1       32.1940   16.3070  -50.8200 O.co2 289  ASP289     -0.2456
    183  OD2       31.7420   18.1510  -49.7310 O.co2 289  ASP289     -0.2456
    184  N         33.2270   14.4690  -52.4360 N.3   292  GLU292     -0.1245
    185  CA        33.7140   14.9590  -53.7360 C.3   292  GLU292      0.1567
    186  C         35.1940   14.7300  -53.8150 C.2   292  GLU292      0.2260
    187  O         35.8430   14.6640  -52.8080 O.2   292  GLU292     -0.2867
    188  CB        33.4630   16.4450  -53.9470 C.3   292  GLU292      0.0388
    189  CG        32.0210   16.8770  -53.8570 C.3   292  GLU292      0.1160
    190  CD        31.1520   16.2960  -54.9580 C.2   292  GLU292      0.3649
    191  OE1       31.5690   16.1970  -56.1330 O.co2 292  GLU292     -0.2457
    192  OE2       30.0390   15.9290  -54.6100 O.co2 292  GLU292     -0.2457
    193  N         37.9560   18.4040  -53.5760 N.3   295  LEU295     -0.1245
    194  CA        37.1220   19.5810  -53.4620 C.3   295  LEU295      0.1561
    195  C         37.2820   20.2520  -52.0900 C.2   295  LEU295      0.2260
    196  O         36.8700   19.7120  -51.0770 O.2   295  LEU295     -0.2867
    197  CB        35.6570   19.2010  -53.6730 C.3   295  LEU295      0.0270
    198  CG        34.6940   20.3720  -53.6630 C.3   295  LEU295      0.0019
    199  CD1       34.7780   21.1000  -55.0070 C.3   295  LEU295      0.0001
    200  CD2       33.2930   19.9130  -53.3680 C.3   295  LEU295      0.0001
    201  N         36.0330   22.9320  -49.5630 N.3   297  VAL297     -0.1245
    202  CA        34.7440   23.5810  -49.3610 C.3   297  VAL297      0.1561
    203  C         34.8950   25.0880  -49.0210 C.2   297  VAL297      0.2260
    204  O         33.9430   25.8690  -49.1710 O.2   297  VAL297     -0.2867
    205  CB        33.8640   22.7700  -48.3440 C.3   297  VAL297      0.0252
    206  CG1       32.5460   23.4780  -48.0340 C.3   297  VAL297      0.0019
    207  CG2       33.6050   21.3250  -48.8930 C.3   297  VAL297      0.0019
    208  N         37.1340   26.9310  -50.7140 N.3   299  ARG299     -0.1245
    209  CA        37.8850   27.3740  -51.8800 C.3   299  ARG299      0.1563
    210  C         37.6740   28.8750  -52.1910 C.2   299  ARG299      0.2260
    211  O         38.3900   29.4540  -52.9990 O.2   299  ARG299     -0.2867
    212  CB        37.5270   26.5000  -53.0750 C.3   299  ARG299      0.0307
    213  CG        36.0490   26.5680  -53.4180 C.3   299  ARG299      0.0489
    214  CD        35.6630   25.5780  -54.4470 C.3   299  ARG299      0.2205
    215  NE        34.2360   25.5700  -54.7360 N.pl3 299  ARG299     -0.0865
    216  CZ        33.3110   24.9440  -54.0130 C.cat 299  ARG299      0.5346
    217  NH1       33.6260   24.2780  -52.9110 N.pl3 299  ARG299      0.1354
    218  NH2       32.0470   24.9860  -54.4050 N.pl3 299  ARG299      0.1354
@<TRIPOS>BOND
     1    58    57    2
     2    57    56    1
     3    56    55    1
     4    56    59    1
     5    60    59    1
     6    60    61    1
     7    75    74    1
     8    71    72    1
     9    71    70    1
    10    72    73    1
    11    61    62    1
    12    66    67    1
    13    74    73    2
    14    74    76    1
    15    67    70    1
    16    67    68    1
    17    64    63    1
    18    62    63    2
    19    63    65    1
    20   191   190   ar
    21    68    69    2
    22   199   198    1
    23   190   192   ar
    24   190   189    1
    25    84    82   am
    26   215   214    1
    27   215   216    2
    28   214   213    1
    29   218   216    1
    30   216   217    1
    31   188   189    1
    32   188   185    1
    33   186   185    1
    34   186   187    2
    35   185   184    1
    36    82    83    2
    37    82    81    1
    38   197   198    1
    39   197   194    1
    40   198   200    1
    41   193   194    1
    42    77    78    1
    43   194   195    1
    44   213   212    1
    45   212   209    1
    46    81    78    1
    47   211   210    2
    48    78    79    1
    49    11     9   ar
    50    11    10   ar
    51     9     7   ar
    52   210   209    1
    53    85    79   am
    54    85    86    1
    55   195   196    2
    56   209   208    1
    57    79    80    2
    58    86    87    1
    59    10     8   ar
    60     7     6   ar
    61    49    48    1
    62    49    50    2
    63   182   181   ar
    64    53    52   ar
    65    48    51    1
    66    48    47    1
    67    87    88    2
    68   181   180    1
    69   181   183   ar
    70     8     6   ar
    71   180   177    1
    72     6     5    1
    73    51    52    1
    74    45    44   ar
    75    52    54   ar
    76   149   147    1
    77   201   202    1
    78   140   139    2
    79   202   203    1
    80   202   205    1
    81   179   178    2
    82   204   203    2
    83    96    94   am
    84     5     2    1
    85    44    43    1
    86    44    46   ar
    87   207   205    1
    88    43    40    1
    89   139   138    1
    90   177   176    1
    91   177   178    1
    92   138   137    1
    93   138   141    1
    94     1     2    1
    95   205   206    1
    96   165   163   ar
    97   165   166   ar
    98   147   148    1
    99   147   144    1
   100     2     3    1
   101    94    95    2
   102    94    93    1
   103   163   161   ar
   104   141   142    1
   105    89    90    1
   106   167   166    1
   107    40    41    1
   108    40    39    1
   109   166   164   ar
   110     3     4    2
   111     3    12   am
   112    41    42    2
   113   143   144    1
   114   144   145    1
   115    93    90    1
   116    12    13    1
   117   161   160    1
   118   161   162   ar
   119   132   131    2
   120   102   101    1
   121    90    91    1
   122   160   157    1
   123    39    35   am
   124   131   130    1
   125   164   162   ar
   126    13    14    1
   127    97    91   am
   128    97    98    1
   129   145   150   am
   130   145   146    2
   131   135   134    2
   132   101    98    1
   133    91    92    2
   134   150   151    1
   135    35    36    2
   136    35    34    1
   137   156   157    1
   138   156   152   am
   139   157   158    1
   140    98    99    1
   141   130   133    1
   142   130   129    1
   143    14    16   am
   144    14    15    2
   145   134   133    1
   146   134   136   am
   147   158   159    2
   148    16    17    1
   149   154   151    1
   150   154   155    1
   151   151   152    1
   152    34    33    1
   153    34    37    1
   154    32    31    2
   155   152   153    2
   156    99   100    2
   157    31    33   am
   158    31    30    1
   159   127   126    1
   160   127   128    1
   161   126   125    1
   162   109   108    1
   163    37    38    1
   164    21    20    1
   165    17    20    1
   166    17    18    1
   167    30    29    1
   168    28    26    1
   169    18    19    2
   170   123   122    2
   171   108   110    1
   172   108   107    1
   173   125   124    1
   174   124   121    1
   175   121   122    1
   176   121   120    1
   177    22    23    1
   178   103   104    1
   179   174   173    2
   180   107   104    1
   181    26    23    1
   182    26    27    1
   183   117   116    1
   184   117   118    1
   185   172   173    1
   186   172   169    1
   187   119   118    1
   188   168   169    1
   189    23    24    1
   190   116   115    1
   191   104   105    1
   192   173   175   am
   193   169   170    1
   194   170   171    2
   195   105   106    2
   196   114   113    2
   197    24    25    2
   198   115   112    1
   199   113   112    1
   200   112   111    1
