@<TRIPOS>MOLECULE
tmp/2q0fA01.pdb
 152 138 0 0 0
SMALL
GASTEIGER

@<TRIPOS>ATOM
      1  N         17.3330   16.2920  -48.5080 N.3    44  PHE44      -0.1241
      2  CA        18.6810   16.4450  -47.9670 C.3    44  PHE44       0.1605
      3  C         18.8740   17.8440  -47.3810 C.2    44  PHE44       0.2264
      4  O         17.9040   18.6140  -47.2890 O.2    44  PHE44      -0.2867
      5  CB        19.7650   15.9860  -48.9760 C.3    44  PHE44       0.0534
      6  CG        19.9860   16.9080  -50.1710 C.ar   44  PHE44      -0.0203
      7  CD1       19.1310   16.8750  -51.2830 C.ar   44  PHE44      -0.0042
      8  CD2       21.1010   17.7420  -50.2170 C.ar   44  PHE44      -0.0042
      9  CE1       19.3440   17.7110  -52.3820 C.ar   44  PHE44      -0.0003
     10  CE2       21.3420   18.5870  -51.3170 C.ar   44  PHE44      -0.0003
     11  CZ        20.4680   18.5820  -52.3960 C.ar   44  PHE44      -0.0000
     12  N         15.1400   26.8720  -46.4580 N.3    58  ASP58      -0.1239
     13  CA        14.4750   26.2500  -47.5840 C.3    58  ASP58       0.1674
     14  C         14.4080   24.7240  -47.3800 C.2    58  ASP58       0.2266
     15  O         14.6680   24.2470  -46.2930 O.2    58  ASP58      -0.2867
     16  CB        15.2510   26.6270  -48.8640 C.3    58  ASP58       0.1410
     17  CG        16.7140   26.0770  -48.9000 C.2    58  ASP58       0.3668
     18  OD1       17.2780   26.0380  -50.0210 O.co2  58  ASP58      -0.2456
     19  OD2       17.3010   25.6820  -47.8540 O.co2  58  ASP58      -0.2456
     20  N         15.8990   21.1270  -49.4760 N.3    60  ASP60      -0.1239
     21  CA        16.7560   20.6520  -50.5450 C.3    60  ASP60       0.1674
     22  C         16.2430   19.2620  -50.9620 C.2    60  ASP60       0.2266
     23  O         16.0770   18.3890  -50.1250 O.2    60  ASP60      -0.2867
     24  CB        18.2330   20.6140  -50.0890 C.3    60  ASP60       0.1410
     25  CG        18.8040   22.0220  -49.7280 C.2    60  ASP60       0.3668
     26  OD1       19.2900   22.7550  -50.6080 O.co2  60  ASP60      -0.2456
     27  OD2       18.7920   22.4100  -48.5420 O.co2  60  ASP60      -0.2456
     28  N         26.3820   27.6670  -61.3930 N.3   112  THR112     -0.1203
     29  CA        26.9770   26.7250  -60.4550 C.3   112  THR112      0.1994
     30  C         27.7080   25.5230  -61.0630 C.2   112  THR112      0.2618
     31  O         27.5430   25.1960  -62.2460 O.2   112  THR112     -0.2717
     32  CB        25.8840   26.2360  -59.4740 C.3   112  THR112      0.1784
     33  OG1       24.7690   25.7360  -60.2220 O.3   112  THR112     -0.2211
     34  CG2       25.4080   27.3930  -58.5770 C.3   112  THR112      0.0376
     35  N         28.5320   24.8910  -60.2240 N.am  113  ARG113     -0.1965
     36  CA        29.1340   23.5780  -60.4830 C.3   113  ARG113      0.1729
     37  C         28.0490   22.5260  -60.6470 C.2   113  ARG113      0.2616
     38  O         28.0880   21.7410  -61.5930 O.2   113  ARG113     -0.2715
     39  CB        29.9840   23.1900  -59.2900 C.3   113  ARG113      0.0348
     40  CG        31.1170   22.1980  -59.5900 C.3   113  ARG113      0.0492
     41  CD        32.0790   22.1040  -58.3920 C.3   113  ARG113      0.2205
     42  NE        31.3400   22.1220  -57.1250 N.pl3 113  ARG113     -0.0865
     43  CZ        30.7810   21.0560  -56.5610 C.cat 113  ARG113      0.5346
     44  NH1       30.8590   19.8620  -57.1440 N.pl3 113  ARG113      0.1354
     45  NH2       30.1370   21.1870  -55.4060 N.pl3 113  ARG113      0.1354
     46  N         27.0850   22.5480  -59.7090 N.am  114  VAL114     -0.1977
     47  CA        25.9270   21.6400  -59.6340 C.3   114  VAL114      0.1596
     48  C         24.6350   22.3160  -60.1460 C.2   114  VAL114      0.2287
     49  O         24.1180   23.2100  -59.4840 O.2   114  VAL114     -0.2864
     50  CB        25.7260   21.1870  -58.1590 C.3   114  VAL114      0.0276
     51  CG1       24.4730   20.3490  -57.9990 C.3   114  VAL114      0.0022
     52  CG2       26.9610   20.4370  -57.6540 C.3   114  VAL114      0.0022
     53  N         20.9710   23.4520  -60.5790 N.3   116  VAL116     -0.1245
     54  CA        19.9270   23.5260  -59.5690 C.3   116  VAL116      0.1561
     55  C         18.7500   24.3590  -60.0940 C.2   116  VAL116      0.2260
     56  O         18.9410   25.3020  -60.8700 O.2   116  VAL116     -0.2867
     57  CB        20.4770   24.0900  -58.2140 C.3   116  VAL116      0.0252
     58  CG1       20.9100   25.5380  -58.3290 C.3   116  VAL116      0.0019
     59  CG2       19.4720   23.9410  -57.0800 C.3   116  VAL116      0.0019
     60  N         15.7740   26.7230  -58.6650 N.3   118  ARG118     -0.1245
     61  CA        15.3720   27.4000  -57.4350 C.3   118  ARG118      0.1563
     62  C         13.9140   27.8550  -57.4720 C.2   118  ARG118      0.2260
     63  O         13.4850   28.5450  -58.3900 O.2   118  ARG118     -0.2867
     64  CB        16.3060   28.5570  -57.1260 C.3   118  ARG118      0.0307
     65  CG        16.0590   29.2160  -55.8020 C.3   118  ARG118      0.0489
     66  CD        17.3290   29.8850  -55.3230 C.3   118  ARG118      0.2205
     67  NE        18.2450   28.8890  -54.7670 N.pl3 118  ARG118     -0.0865
     68  CZ        19.5730   28.9140  -54.8820 C.cat 118  ARG118      0.5346
     69  NH1       20.1740   29.8940  -55.5480 N.pl3 118  ARG118      0.1354
     70  NH2       20.3000   27.9440  -54.3320 N.pl3 118  ARG118      0.1354
     71  N         15.2120   23.8720  -53.3800 N.3   128  ASP128     -0.1239
     72  CA        16.1400   23.6250  -54.4650 C.3   128  ASP128      0.1674
     73  C         16.0320   22.1920  -54.9840 C.2   128  ASP128      0.2266
     74  O         16.0750   21.2350  -54.2050 O.2   128  ASP128     -0.2867
     75  CB        17.5490   23.9030  -53.9750 C.3   128  ASP128      0.1410
     76  CG        17.8580   25.3950  -53.9270 C.2   128  ASP128      0.3668
     77  OD1       17.2840   26.1280  -54.7580 O.co2 128  ASP128     -0.2456
     78  OD2       18.6780   25.8420  -53.0810 O.co2 128  ASP128     -0.2456
     79  N         17.8730   19.3970  -57.4050 N.3   130  THR130     -0.1218
     80  CA        19.0180   18.9720  -58.1880 C.3   130  THR130      0.1862
     81  C         18.6810   17.6090  -58.7560 C.2   130  THR130      0.2287
     82  O         17.7230   16.9830  -58.3270 O.2   130  THR130     -0.2866
     83  CB        20.3170   18.8890  -57.3400 C.3   130  THR130      0.1770
     84  OG1       20.0640   18.1780  -56.1240 O.3   130  THR130     -0.2211
     85  CG2       20.8380   20.2740  -57.0130 C.3   130  THR130      0.0375
     86  N         22.3820   13.2310  -58.3480 N.3   133  ARG133     -0.1245
     87  CA        23.5330   13.2800  -57.4540 C.3   133  ARG133      0.1563
     88  C         23.2240   12.5880  -56.1320 C.2   133  ARG133      0.2260
     89  O         22.0960   12.6910  -55.6300 O.2   133  ARG133     -0.2867
     90  CB        24.0040   14.7330  -57.2670 C.3   133  ARG133      0.0307
     91  CG        24.4000   15.3840  -58.6040 C.3   133  ARG133      0.0489
     92  CD        24.8990   16.8060  -58.5080 C.3   133  ARG133      0.2205
     93  NE        25.8360   16.9280  -57.3920 N.pl3 133  ARG133     -0.0865
     94  CZ        27.1600   16.7770  -57.4660 C.cat 133  ARG133      0.5346
     95  NH1       27.7520   16.5230  -58.6310 N.pl3 133  ARG133      0.1354
     96  NH2       27.8890   16.8880  -56.3570 N.pl3 133  ARG133      0.1354
     97  N         24.8600   14.7770  -52.1320 N.3   136  GLY136     -0.1225
     98  CA        23.9330   15.5950  -51.3600 C.3   136  GLY136      0.1811
     99  C         23.2340   14.8290  -50.2590 C.2   136  GLY136      0.2280
    100  O         23.1890   15.2860  -49.1140 O.2   136  GLY136     -0.2866
    101  N         28.0320   31.9550  -47.2730 N.3   171  ALA171     -0.1245
    102  CA        27.9410   32.0540  -48.7310 C.3   171  ALA171      0.1562
    103  C         26.5990   32.5750  -49.2400 C.2   171  ALA171      0.2260
    104  O         26.4600   32.8740  -50.4230 O.2   171  ALA171     -0.2867
    105  CB        28.2330   30.7280  -49.3500 C.3   171  ALA171      0.0290
    106  N         29.5770   28.1440  -47.2650 N.3   179  THR179     -0.1218
    107  CA        28.1790   27.7020  -47.2290 C.3   179  THR179      0.1862
    108  C         27.8290   27.3050  -45.8090 C.2   179  THR179      0.2287
    109  O         28.7350   27.0660  -45.0080 O.2   179  THR179     -0.2866
    110  CB        27.8940   26.4670  -48.1080 C.3   179  THR179      0.1770
    111  OG1       28.7920   25.4220  -47.7520 O.3   179  THR179     -0.2211
    112  CG2       28.0400   26.7710  -49.5790 C.3   179  THR179      0.0375
    113  N         26.6690   24.4440  -45.1880 N.3   181  TYR181     -0.1241
    114  CA        27.2330   23.1090  -45.1860 C.3   181  TYR181      0.1605
    115  C         28.6760   23.1270  -44.6860 C.2   181  TYR181      0.2264
    116  O         29.0410   22.3270  -43.8310 O.2   181  TYR181     -0.2867
    117  CB        27.1470   22.5290  -46.5840 C.3   181  TYR181      0.0534
    118  CG        27.9490   21.2610  -46.8470 C.ar  181  TYR181     -0.0201
    119  CD1       27.7520   20.1100  -46.1000 C.ar  181  TYR181     -0.0009
    120  CD2       28.8540   21.2050  -47.8880 C.ar  181  TYR181     -0.0009
    121  CE1       28.4630   18.9530  -46.3600 C.ar  181  TYR181      0.0417
    122  CE2       29.5600   20.0520  -48.1610 C.ar  181  TYR181      0.0417
    123  CZ        29.3620   18.9360  -47.3870 C.ar  181  TYR181      0.1957
    124  OH        30.0610   17.7960  -47.6590 O.3   181  TYR181     -0.2866
    125  N         33.2270   14.4690  -52.4360 N.3   292  GLU292     -0.1245
    126  CA        33.7140   14.9590  -53.7360 C.3   292  GLU292      0.1567
    127  C         35.1940   14.7300  -53.8150 C.2   292  GLU292      0.2260
    128  O         35.8430   14.6640  -52.8080 O.2   292  GLU292     -0.2867
    129  CB        33.4630   16.4450  -53.9470 C.3   292  GLU292      0.0388
    130  CG        32.0210   16.8770  -53.8570 C.3   292  GLU292      0.1160
    131  CD        31.1520   16.2960  -54.9580 C.2   292  GLU292      0.3649
    132  OE1       31.5690   16.1970  -56.1330 O.co2 292  GLU292     -0.2457
    133  OE2       30.0390   15.9290  -54.6100 O.co2 292  GLU292     -0.2457
    134  N         37.9560   18.4040  -53.5760 N.3   295  LEU295     -0.1245
    135  CA        37.1220   19.5810  -53.4620 C.3   295  LEU295      0.1561
    136  C         37.2820   20.2520  -52.0900 C.2   295  LEU295      0.2260
    137  O         36.8700   19.7120  -51.0770 O.2   295  LEU295     -0.2867
    138  CB        35.6570   19.2010  -53.6730 C.3   295  LEU295      0.0270
    139  CG        34.6940   20.3720  -53.6630 C.3   295  LEU295      0.0019
    140  CD1       34.7780   21.1000  -55.0070 C.3   295  LEU295      0.0001
    141  CD2       33.2930   19.9130  -53.3680 C.3   295  LEU295      0.0001
    142  N         37.1340   26.9310  -50.7140 N.3   299  ARG299     -0.1245
    143  CA        37.8850   27.3740  -51.8800 C.3   299  ARG299      0.1563
    144  C         37.6740   28.8750  -52.1910 C.2   299  ARG299      0.2260
    145  O         38.3900   29.4540  -52.9990 O.2   299  ARG299     -0.2867
    146  CB        37.5270   26.5000  -53.0750 C.3   299  ARG299      0.0307
    147  CG        36.0490   26.5680  -53.4180 C.3   299  ARG299      0.0489
    148  CD        35.6630   25.5780  -54.4470 C.3   299  ARG299      0.2205
    149  NE        34.2360   25.5700  -54.7360 N.pl3 299  ARG299     -0.0865
    150  CZ        33.3110   24.9440  -54.0130 C.cat 299  ARG299      0.5346
    151  NH1       33.6260   24.2780  -52.9110 N.pl3 299  ARG299      0.1354
    152  NH2       32.0470   24.9860  -54.4050 N.pl3 299  ARG299      0.1354
@<TRIPOS>BOND
     1    31    30    2
     2    38    37    2
     3    28    29    1
     4    30    29    1
     5    30    35   am
     6    56    55    2
     7    37    36    1
     8    37    46   am
     9    53    54    1
    10    36    35    1
    11    36    39    1
    12    29    32    1
    13    33    32    1
    14    48    47    1
    15    48    49    2
    16    55    54    1
    17    46    47    1
    18    47    50    1
    19    40    39    1
    20    40    41    1
    21    54    57    1
    22    32    34    1
    23    81    82    2
    24    81    80    1
    25    60    61    1
    26    95    94    1
    27    91    92    1
    28    91    90    1
    29    92    93    1
    30    41    42    1
    31    63    62    2
    32    86    87    1
    33    58    57    1
    34    57    59    1
    35    80    79    1
    36    80    83    1
    37    50    51    1
    38    50    52    1
    39    62    61    1
    40    94    93    2
    41    94    96    1
    42    87    90    1
    43    87    88    1
    44    61    64    1
    45    83    85    1
    46    83    84    1
    47    44    43    1
    48    64    65    1
    49    42    43    2
    50    43    45    1
    51   132   131   ar
    52    88    89    2
    53    65    66    1
    54    69    68    1
    55    66    67    1
    56   140   139    1
    57    73    72    1
    58    73    74    2
    59   131   133   ar
    60   131   130    1
    61    68    67    2
    62    68    70    1
    63    77    76   ar
    64   149   148    1
    65   149   150    2
    66    72    75    1
    67    72    71    1
    68   148   147    1
    69   152   150    1
    70   150   151    1
    71    75    76    1
    72   129   130    1
    73   129   126    1
    74    76    78   ar
    75   127   126    1
    76   127   128    2
    77   126   125    1
    78   138   139    1
    79   138   135    1
    80   139   141    1
    81   134   135    1
    82   135   136    1
    83   147   146    1
    84   146   143    1
    85   145   144    2
    86    11     9   ar
    87    11    10   ar
    88     9     7   ar
    89   144   143    1
    90    97    98    1
    91   136   137    2
    92   143   142    1
    93    98    99    1
    94    10     8   ar
    95     7     6   ar
    96    22    21    1
    97    22    23    2
    98    26    25   ar
    99    21    24    1
   100    21    20    1
   101   104   103    2
   102    99   100    2
   103     8     6   ar
   104     6     5    1
   105    24    25    1
   106    18    17   ar
   107    25    27   ar
   108   112   110    1
   109   105   102    1
   110   103   102    1
   111     5     2    1
   112    17    16    1
   113    17    19   ar
   114    16    13    1
   115   102   101    1
   116     1     2    1
   117   122   120   ar
   118   122   123   ar
   119   110   111    1
   120   110   107    1
   121     2     3    1
   122   120   118   ar
   123   124   123    1
   124    13    14    1
   125    13    12    1
   126   123   121   ar
   127     3     4    2
   128    14    15    2
   129   106   107    1
   130   107   108    1
   131   118   117    1
   132   118   119   ar
   133   117   114    1
   134   121   119   ar
   135   108   109    2
   136   113   114    1
   137   114   115    1
   138   115   116    2
