@<TRIPOS>MOLECULE
tmp/2q0fB00.pdb
 143 134 0 0 0
SMALL
GASTEIGER

@<TRIPOS>ATOM
      1  N         27.4420   23.1990  -96.4010 N.3    48  PHE48      -0.1227
      2  CA        26.6320   23.6610  -95.2900 C.3    48  PHE48       0.1736
      3  C         25.4060   24.4170  -95.7830 C.2    48  PHE48       0.2596
      4  O         25.1850   24.5520  -96.9880 O.2    48  PHE48      -0.2718
      5  CB        27.4640   24.4720  -94.2820 C.3    48  PHE48       0.0547
      6  CG        27.8460   25.8600  -94.7560 C.ar   48  PHE48      -0.0202
      7  CD1       29.0140   26.0720  -95.4580 C.ar   48  PHE48      -0.0042
      8  CD2       27.0470   26.9580  -94.4650 C.ar   48  PHE48      -0.0042
      9  CE1       29.3550   27.3350  -95.8860 C.ar   48  PHE48      -0.0003
     10  CE2       27.3970   28.2230  -94.8920 C.ar   48  PHE48      -0.0003
     11  CZ        28.5460   28.4070  -95.6010 C.ar   48  PHE48      -0.0000
     12  N         24.6020   24.8970  -94.8460 N.am   49  GLY49      -0.1942
     13  CA        23.4040   25.6330  -95.1740 C.3    49  GLY49       0.2014
     14  C         22.1820   24.7460  -95.2640 C.2    49  GLY49       0.2639
     15  O         22.1360   23.6600  -94.6930 O.2    49  GLY49      -0.2714
     16  N         21.2070   25.2160  -96.0230 N.am   50  SER50      -0.1949
     17  CA        19.8740   24.6340  -96.0880 C.3    50  SER50       0.1924
     18  C         19.7340   23.1580  -96.5390 C.2    50  SER50       0.2314
     19  O         18.8300   22.4570  -96.0800 O.2    50  SER50      -0.2863
     20  CB        19.0230   25.5400  -96.9710 C.3    50  SER50       0.2116
     21  OG        17.7210   24.9990  -97.1120 O.3    50  SER50      -0.2180
     22  N         20.6800   21.1180  -93.5850 N.3    53  VAL53      -0.1231
     23  CA        19.5950   21.2140  -92.6090 C.3    53  VAL53       0.1692
     24  C         18.4890   20.2470  -92.9690 C.2    53  VAL53       0.2592
     25  O         18.0930   19.4380  -92.1410 O.2    53  VAL53      -0.2718
     26  CB        19.0580   22.6590  -92.4870 C.3    53  VAL53       0.0266
     27  CG1       17.8160   22.7250  -91.6320 C.3    53  VAL53       0.0020
     28  CG2       20.1250   23.5540  -91.8910 C.3    53  VAL53       0.0020
     29  N         18.0370   20.2910  -94.2230 N.am   54  TYR54      -0.1976
     30  CA        16.8680   19.5050  -94.6640 C.3    54  TYR54       0.1639
     31  C         17.1360   18.1190  -95.2310 C.2    54  TYR54       0.2290
     32  O         16.2330   17.2800  -95.2350 O.2    54  TYR54      -0.2864
     33  CB        16.0600   20.2630  -95.7010 C.3    54  TYR54       0.0560
     34  CG        15.3900   21.4800  -95.1710 C.ar   54  TYR54      -0.0198
     35  CD1       14.4150   21.3960  -94.1850 C.ar   54  TYR54      -0.0009
     36  CD2       15.7140   22.7150  -95.6700 C.ar   54  TYR54      -0.0009
     37  CE1       13.7920   22.5250  -93.7090 C.ar   54  TYR54       0.0417
     38  CE2       15.0990   23.8510  -95.2060 C.ar   54  TYR54       0.0417
     39  CZ        14.1460   23.7530  -94.2310 C.ar   54  TYR54       0.1957
     40  OH        13.5710   24.9060  -93.7990 O.3    54  TYR54      -0.2866
     41  N         20.4640   27.9490 -104.7110 N.3    62  ASP62      -0.1239
     42  CA        21.9030   27.9650 -104.4430 C.3    62  ASP62       0.1674
     43  C         22.3320   26.9190 -103.3990 C.2    62  ASP62       0.2266
     44  O         21.5380   26.5080 -102.5530 O.2    62  ASP62      -0.2867
     45  CB        22.3300   29.3690 -103.9730 C.3    62  ASP62       0.1410
     46  CG        22.1060   30.4530 -105.0310 C.2    62  ASP62       0.3668
     47  OD1       22.7820   31.5000 -104.9490 O.co2  62  ASP62      -0.2456
     48  OD2       21.2730   30.2770 -105.9450 O.co2  62  ASP62      -0.2456
     49  N         25.7320   26.0680 -100.5970 N.3    64  ASP64      -0.1239
     50  CA        26.7990   26.7320  -99.8560 C.3    64  ASP64       0.1674
     51  C         27.8890   25.7210  -99.5720 C.2    64  ASP64       0.2266
     52  O         27.6170   24.6250  -99.0600 O.2    64  ASP64      -0.2867
     53  CB        26.3030   27.2530  -98.5060 C.3    64  ASP64       0.1410
     54  CG        25.2110   28.2870  -98.6270 C.2    64  ASP64       0.3668
     55  OD1       25.5430   29.4430  -98.9300 O.co2  64  ASP64      -0.2456
     56  OD2       24.0270   27.9610  -98.3770 O.co2  64  ASP64      -0.2456
     57  N         26.6250   24.6230  -87.1800 N.3   132  ASN132     -0.1225
     58  CA        25.1910   24.8210  -86.8970 C.3   132  ASN132      0.1785
     59  C         24.2350   24.0940  -87.8400 C.2   132  ASN132      0.2597
     60  O         23.1840   23.6160  -87.4020 O.2   132  ASN132     -0.2718
     61  CB        24.8000   26.2900  -86.6720 C.3   132  ASN132      0.1169
     62  CG        24.9600   27.1480  -87.9070 C.2   132  ASN132      0.2627
     63  OD1       24.4540   26.8240  -88.9850 O.2   132  ASN132     -0.2716
     64  ND2       25.6640   28.2810  -87.7470 N.am  132  ASN132     -0.0877
     65  N         24.6110   23.9730  -89.1140 N.am  133  SER133     -0.1952
     66  CA        23.8320   23.1790  -90.0640 C.3   133  SER133      0.1924
     67  C         23.7570   21.7260  -89.6270 C.2   133  SER133      0.2314
     68  O         22.7640   21.0480  -89.8720 O.2   133  SER133     -0.2863
     69  CB        24.4620   23.2480  -91.4350 C.3   133  SER133      0.2116
     70  OG        24.6330   24.5950  -91.7980 O.3   133  SER133     -0.2180
     71  N         21.1860   21.7140  -86.6090 N.3   136  LEU136     -0.1245
     72  CA        19.7800   21.7840  -87.0230 C.3   136  LEU136      0.1561
     73  C         19.3500   20.5040  -87.7260 C.2   136  LEU136      0.2260
     74  O         18.2190   20.0530  -87.5460 O.2   136  LEU136     -0.2867
     75  CB        19.4860   23.0270  -87.8700 C.3   136  LEU136      0.0270
     76  CG        19.8270   24.4190  -87.2930 C.3   136  LEU136      0.0019
     77  CD1       19.2430   25.6000  -88.1130 C.3   136  LEU136      0.0001
     78  CD2       19.4410   24.5880  -85.8140 C.3   136  LEU136      0.0001
     79  N          9.2480   29.5000  -93.2330 N.3   154  LYS154     -0.1245
     80  CA        10.2130   30.1320  -94.1550 C.3   154  LYS154      0.1561
     81  C          9.5180   30.8670  -95.2970 C.2   154  LYS154      0.2260
     82  O          9.7690   32.0550  -95.5270 O.2   154  LYS154     -0.2867
     83  CB        11.2150   29.1140  -94.7130 C.3   154  LYS154      0.0271
     84  CG        12.1280   29.6980  -95.8050 C.3   154  LYS154      0.0035
     85  CD        13.1240   28.6890  -96.3080 C.3   154  LYS154      0.0206
     86  CE        12.5570   27.8120  -97.3960 C.3   154  LYS154      0.1093
     87  NZ        13.6490   26.9690  -97.9710 N.3   154  LYS154     -0.1314
     88  N          9.1660   35.0870  -95.8040 N.3   158  LYS158     -0.1245
     89  CA         9.6450   35.7740  -96.9950 C.3   158  LYS158      0.1561
     90  C          8.4840   36.4960  -97.6810 C.2   158  LYS158      0.2260
     91  O          8.6270   37.6330  -98.1010 O.2   158  LYS158     -0.2867
     92  CB        10.3280   34.7980  -97.9520 C.3   158  LYS158      0.0271
     93  CG        11.7190   34.3310  -97.5350 C.3   158  LYS158      0.0035
     94  CD        12.1150   33.1220  -98.3570 C.3   158  LYS158      0.0206
     95  CE        13.5120   32.6250  -98.0390 C.3   158  LYS158      0.1093
     96  NZ        14.5410   33.4840  -98.6430 N.3   158  LYS158     -0.1314
     97  N         11.3830   38.0020  -93.4210 N.3   163  ASN163     -0.1240
     98  CA        12.6820   37.3970  -93.7130 C.3   163  ASN163      0.1653
     99  C         13.6650   38.4880  -94.0780 C.2   163  ASN163      0.2266
    100  O         13.2670   39.4490  -94.7170 O.2   163  ASN163     -0.2867
    101  CB        12.5650   36.4080  -94.8660 C.3   163  ASN163      0.1155
    102  CG        13.5640   35.2850  -94.7720 C.2   163  ASN163      0.2627
    103  OD1       14.7000   35.4190  -95.2000 O.2   163  ASN163     -0.2716
    104  ND2       13.1380   34.1540  -94.2200 N.am  163  ASN163     -0.0877
    105  N         16.0800   38.1890  -96.0860 N.3   165  SER165     -0.1217
    106  CA        16.2670   38.0650  -97.5370 C.3   165  SER165      0.1889
    107  C         15.4550   39.1310  -98.2920 C.2   165  SER165      0.2288
    108  O         15.6680   39.3590  -99.4820 O.2   165  SER165     -0.2866
    109  CB        15.7710   36.7070  -98.0080 C.3   165  SER165      0.2089
    110  OG        14.3910   36.8250  -98.3140 O.3   165  SER165     -0.2183
    111  N         16.7210   36.2810  -90.4220 N.3   172  THR172     -0.1203
    112  CA        17.1030   35.3770  -91.4890 C.3   172  THR172      0.1994
    113  C         16.3530   34.0390  -91.3650 C.2   172  THR172      0.2619
    114  O         15.7610   33.7440  -90.3190 O.2   172  THR172     -0.2717
    115  CB        18.6560   35.1730  -91.5450 C.3   172  THR172      0.1784
    116  OG1       19.1090   34.5290  -90.3500 O.3   172  THR172     -0.2211
    117  CG2       19.3730   36.5030  -91.6790 C.3   172  THR172      0.0376
    118  N         16.3810   33.2460  -92.4440 N.am  173  SER173     -0.1937
    119  CA        15.7690   31.9100  -92.4930 C.3   173  SER173      0.2055
    120  C         16.3700   31.0060  -91.4250 C.2   173  SER173      0.2643
    121  O         15.7480   30.0500  -90.9640 O.2   173  SER173     -0.2714
    122  CB        15.9760   31.2720  -93.8770 C.3   173  SER173      0.2130
    123  OG        15.5340   32.0990  -94.9540 O.3   173  SER173     -0.2179
    124  N         17.6050   31.3150  -91.0480 N.am  174  TYR174     -0.1973
    125  CA        18.3300   30.5580  -90.0260 C.3   174  TYR174      0.1639
    126  C         17.7430   30.8810  -88.6730 C.2   174  TYR174      0.2290
    127  O         17.6000   29.9980  -87.8350 O.2   174  TYR174     -0.2864
    128  CB        19.8260   30.8990  -90.0870 C.3   174  TYR174      0.0560
    129  CG        20.6590   30.4480  -88.9140 C.ar  174  TYR174     -0.0198
    130  CD1       20.8340   29.1000  -88.6310 C.ar  174  TYR174     -0.0009
    131  CD2       21.3060   31.3830  -88.1020 C.ar  174  TYR174     -0.0009
    132  CE1       21.6110   28.6950  -87.5600 C.ar  174  TYR174      0.0417
    133  CE2       22.0760   30.9870  -87.0360 C.ar  174  TYR174      0.0417
    134  CZ        22.2220   29.6420  -86.7800 C.ar  174  TYR174      0.1957
    135  OH        22.9810   29.2470  -85.7240 O.3   174  TYR174     -0.2866
    136  N         14.4820   29.0720  -87.9720 N.3   177  ASN177     -0.1240
    137  CA        14.7550   27.6520  -87.6410 C.3   177  ASN177      0.1653
    138  C         15.2810   27.4890  -86.2270 C.2   177  ASN177      0.2266
    139  O         15.0310   26.4750  -85.5720 O.2   177  ASN177     -0.2867
    140  CB        15.7340   27.0210  -88.6410 C.3   177  ASN177      0.1155
    141  CG        15.0520   26.5680  -89.9090 C.2   177  ASN177      0.2627
    142  OD1       13.8430   26.4400  -89.9500 O.2   177  ASN177     -0.2716
    143  ND2       15.8220   26.3420  -90.9550 N.am  177  ASN177     -0.0877
@<TRIPOS>BOND
     1    48    46   ar
     2    46    47   ar
     3    46    45    1
     4    41    42    1
     5    42    45    1
     6    42    43    1
     7    43    44    2
     8    49    50    1
     9    50    51    1
    10    50    53    1
    11    51    52    2
    12   108   107    2
    13    55    54   ar
    14    96    95    1
    15    54    53    1
    16    54    56   ar
    17    94    95    1
    18    94    93    1
    19   110   109    1
    20   107   106    1
    21    91    90    2
    22   109   106    1
    23    87    86    1
    24    92    93    1
    25    92    89    1
    26    90    89    1
    27   106   105    1
    28    86    85    1
    29    21    20    1
    30    89    88    1
    31     4     3    2
    32    20    17    1
    33    18    17    1
    34    18    19    2
    35     1     2    1
    36    85    84    1
    37    17    16    1
    38    16    14   am
    39     9    11   ar
    40     9     7   ar
    41    84    83    1
    42     3     2    1
    43     3    12   am
    44    33    34    1
    45    33    30    1
    46    36    38   ar
    47    36    34   ar
    48    11    10   ar
    49    82    81    2
    50     7     6   ar
    51    81    80    1
    52     2     5    1
    53    14    13    1
    54    14    15    2
    55    32    31    2
    56    31    30    1
    57    38    39   ar
    58   103   102    2
    59    13    12    1
    60    34    35   ar
    61   123   122    1
    62    10     8   ar
    63   101   102    1
    64   101    98    1
    65   102   104   am
    66     6     8   ar
    67     6     5    1
    68   100    99    2
    69    83    80    1
    70    30    29    1
    71    39    40    1
    72    39    37   ar
    73    29    24   am
    74    35    37   ar
    75    80    79    1
    76    99    98    1
    77   122   119    1
    78    98    97    1
    79    22    23    1
    80    24    23    1
    81    24    25    2
    82    23    26    1
    83   119   118    1
    84   119   120    1
    85    26    28    1
    86    26    27    1
    87   118   113   am
    88    70    69    1
    89   117   115    1
    90   115   112    1
    91   115   116    1
    92   112   113    1
    93   112   111    1
    94    69    66    1
    95   120   124   am
    96   120   121    2
    97   113   114    2
    98   124   125    1
    99   143   141   am
   100   128   125    1
   101   128   129    1
   102    66    67    1
   103    66    65    1
   104   125   126    1
   105   142   141    2
   106   141   140    1
   107    68    67    2
   108    65    59   am
   109    63    62    2
   110   129   130   ar
   111   129   131   ar
   112   126   127    2
   113   140   137    1
   114   130   132   ar
   115    77    76    1
   116   131   133   ar
   117   136   137    1
   118    62    64   am
   119    62    61    1
   120    75    76    1
   121    75    72    1
   122    59    60    2
   123    59    58    1
   124    73    74    2
   125    73    72    1
   126   137   138    1
   127   132   134   ar
   128    76    78    1
   129    57    58    1
   130   133   134   ar
   131    72    71    1
   132    58    61    1
   133   134   135    1
   134   138   139    2
