@<TRIPOS>MOLECULE
tmp/2q0jA00.pdb
 135 131 0 0 0
SMALL
GASTEIGER

@<TRIPOS>ATOM
      1  N          4.3740    3.8020    4.8750 N.3    80  HIS80      -0.1226
      2  CA         4.5450    5.1990    5.2810 C.3    80  HIS80       0.1752
      3  C          5.0940    6.0460    4.1460 C.2    80  HIS80       0.2596
      4  O          5.8700    5.5640    3.3480 O.2    80  HIS80      -0.2718
      5  CB         5.5100    5.2870    6.4690 C.3    80  HIS80       0.0759
      6  CG         4.8850    4.9340    7.7630 C.ar   80  HIS80       0.0818
      7  ND1        5.6330    4.6990    8.9040 N.ar   80  HIS80      -0.2268
      8  CD2        3.5810    4.7860    8.1130 C.ar   80  HIS80       0.1154
      9  CE1        4.8010    4.4520    9.9140 C.ar   80  HIS80       0.1986
     10  NE2        3.5610    4.4610    9.4480 N.ar   80  HIS80      -0.2212
     11  N          4.7900    7.3530    4.1800 N.am   81  TYR81      -0.1962
     12  CA         5.0280    8.2540    3.0600 C.3    81  TYR81       0.1771
     13  C          6.4800    8.2830    2.6190 C.2    81  TYR81       0.2619
     14  O          6.7720    8.4710    1.4330 O.2    81  TYR81      -0.2715
     15  CB         4.5610    9.6530    3.4230 C.3    81  TYR81       0.0574
     16  CG         5.5160   10.3420    4.3480 C.ar   81  TYR81      -0.0198
     17  CD1        6.4950   11.1680    3.8610 C.ar   81  TYR81      -0.0009
     18  CD2        5.4840   10.0860    5.7190 C.ar   81  TYR81      -0.0009
     19  CE1        7.4160   11.7530    4.7060 C.ar   81  TYR81       0.0417
     20  CE2        6.3780   10.6480    6.5700 C.ar   81  TYR81       0.0417
     21  CZ         7.3460   11.4900    6.0490 C.ar   81  TYR81       0.1957
     22  OH         8.2540   12.0580    6.9100 O.3    81  TYR81      -0.2866
     23  N          7.3780    8.0400    3.5770 N.am   82  ASP82      -0.1971
     24  CA         8.8280    8.0370    3.3270 C.3    82  ASP82       0.1709
     25  C          9.4820    6.6840    2.9360 C.2    82  ASP82       0.2293
     26  O         10.7050    6.6060    2.8380 O.2    82  ASP82      -0.2864
     27  CB         9.5890    8.7020    4.5110 C.3    82  ASP82       0.1436
     28  CG         9.3310    8.0650    5.8590 C.2    82  ASP82       0.3671
     29  OD1        8.2040    7.5470    6.1620 O.co2  82  ASP82      -0.2456
     30  OD2       10.3150    8.0260    6.6870 O.co2  82  ASP82      -0.2456
     31  N          5.9070   -0.7370   14.6420 N.3   168  HIS168     -0.1241
     32  CA         6.1190    0.5990   14.0960 C.3   168  HIS168      0.1621
     33  C          4.8860    1.0530   13.2540 C.2   168  HIS168      0.2264
     34  O          4.3890    2.1630   13.3790 O.2   168  HIS168     -0.2867
     35  CB         7.4220    0.6320   13.2630 C.3   168  HIS168      0.0745
     36  CG         7.6050    1.9170   12.5190 C.ar  168  HIS168      0.0817
     37  ND1        7.9890    3.0890   13.1430 N.ar  168  HIS168     -0.2268
     38  CD2        7.3850    2.2330   11.2210 C.ar  168  HIS168      0.1154
     39  CE1        8.0470    4.0610   12.2430 C.ar  168  HIS168      0.1986
     40  NE2        7.6600    3.5710   11.0760 N.ar  168  HIS168     -0.2212
     41  N         12.0640    0.9030    9.7020 N.3   187  ASP187     -0.1239
     42  CA        11.9180    1.6650   10.9260 C.3   187  ASP187      0.1674
     43  C         11.6220    0.8160   12.1350 C.2   187  ASP187      0.2266
     44  O         11.2810    1.3410   13.1450 O.2   187  ASP187     -0.2867
     45  CB        10.8010    2.6900   10.7410 C.3   187  ASP187      0.1410
     46  CG        11.1750    3.7860    9.7770 C.2   187  ASP187      0.3668
     47  OD1       12.3850    3.9030    9.5130 O.co2 187  ASP187     -0.2456
     48  OD2       10.2390    4.5070    9.3100 O.co2 187  ASP187     -0.2456
     49  N         14.7830    5.0710   15.1130 N.3   191  GLU191     -0.1245
     50  CA        15.5850    6.0520   14.4210 C.3   191  GLU191      0.1567
     51  C         16.9420    6.0370   15.0990 C.2   191  GLU191      0.2260
     52  O         17.0420    6.1970   16.3080 O.2   191  GLU191     -0.2867
     53  CB        14.9280    7.4540   14.5450 C.3   191  GLU191      0.0388
     54  CG        15.7510    8.5840   13.9380 C.3   191  GLU191      0.1160
     55  CD        15.2040   10.0240   14.2150 C.2   191  GLU191      0.3649
     56  OE1       14.7360   10.3120   15.3290 O.co2 191  GLU191     -0.2457
     57  OE2       15.3160   10.8720   13.3070 O.co2 191  GLU191     -0.2457
     58  N         10.2860    4.2490   17.6180 N.3   202  LEU202     -0.1245
     59  CA         9.3400    4.7970   16.6300 C.3   202  LEU202      0.1561
     60  C          8.1150    3.9060   16.6560 C.2   202  LEU202      0.2260
     61  O          7.8600    3.1270   15.7460 O.2   202  LEU202     -0.2867
     62  CB         9.9560    4.8520   15.2310 C.3   202  LEU202      0.0270
     63  CG        11.1040    5.7970   14.8620 C.3   202  LEU202      0.0019
     64  CD1       11.6220    5.6080   13.4120 C.3   202  LEU202      0.0001
     65  CD2       10.7930    7.2620   15.0560 C.3   202  LEU202      0.0001
     66  N          4.5770    3.6600   16.3970 N.3   204  PHE204     -0.1241
     67  CA         3.4440    4.4650   15.9140 C.3   204  PHE204      0.1605
     68  C          2.1960    3.6570   15.7260 C.2   204  PHE204      0.2264
     69  O          1.1760    4.1990   15.3680 O.2   204  PHE204     -0.2867
     70  CB         3.8300    5.2270   14.6340 C.3   204  PHE204      0.0534
     71  CG         4.9950    6.1270   14.8190 C.ar  204  PHE204     -0.0203
     72  CD1        5.9950    6.1900   13.8730 C.ar  204  PHE204     -0.0042
     73  CD2        5.1280    6.8820   15.9910 C.ar  204  PHE204     -0.0042
     74  CE1        7.0910    7.0030   14.0690 C.ar  204  PHE204     -0.0003
     75  CE2        6.2290    7.7040   16.1990 C.ar  204  PHE204     -0.0003
     76  CZ         7.2140    7.7880   15.2210 C.ar  204  PHE204     -0.0000
     77  N         16.7340    4.8880    7.5330 N.3   230  HIS230     -0.1241
     78  CA        17.3670    6.2090    7.5210 C.3   230  HIS230      0.1621
     79  C         18.7670    6.1260    8.0780 C.2   230  HIS230      0.2264
     80  O         18.9820    5.4790    9.0940 O.2   230  HIS230     -0.2867
     81  CB        16.5370    7.1410    8.4020 C.3   230  HIS230      0.0745
     82  CG        15.0880    7.1800    8.0190 C.ar  230  HIS230      0.0817
     83  ND1       14.6270    7.9210    6.9510 N.ar  230  HIS230     -0.2268
     84  CD2       14.0200    6.4780    8.4840 C.ar  230  HIS230      0.1154
     85  CE1       13.3210    7.7090    6.8030 C.ar  230  HIS230      0.1986
     86  NE2       12.9320    6.8250    7.7170 N.ar  230  HIS230     -0.2212
     87  N         15.1300   14.7110   11.5340 N.3   282  SER282     -0.1217
     88  CA        14.2260   14.4370   10.4450 C.3   282  SER282      0.1889
     89  C         13.5500   15.6860    9.8400 C.2   282  SER282      0.2288
     90  O         12.6580   15.5620    8.9930 O.2   282  SER282     -0.2866
     91  CB        13.1370   13.5200   10.9570 C.3   282  SER282      0.2089
     92  OG        12.3850   14.2040   11.9130 O.3   282  SER282     -0.2183
     93  N         12.9610   15.8170    6.1100 N.3   285  PHE285     -0.1227
     94  CA        12.0040   14.8540    5.5070 C.3   285  PHE285      0.1736
     95  C         10.6970   14.5500    6.2540 C.2   285  PHE285      0.2595
     96  O          9.9420   13.6030    5.8820 O.2   285  PHE285     -0.2718
     97  CB        12.6600   13.5230    5.1430 C.3   285  PHE285      0.0547
     98  CG        13.3310   12.7980    6.2870 C.ar  285  PHE285     -0.0202
     99  CD1       12.6960   11.7970    6.9590 C.ar  285  PHE285     -0.0042
    100  CD2       14.6120   13.0800    6.6120 C.ar  285  PHE285     -0.0042
    101  CE1       13.3180   11.1160    7.9930 C.ar  285  PHE285     -0.0003
    102  CE2       15.2600   12.3870    7.6340 C.ar  285  PHE285     -0.0003
    103  CZ        14.6140   11.4080    8.3160 C.ar  285  PHE285     -0.0000
    104  N         10.4260   15.3290    7.2890 N.am  286  LEU286     -0.1980
    105  CA         9.2400   15.1680    8.0680 C.3   286  LEU286      0.1596
    106  C          8.9480   16.5470    8.6040 C.2   286  LEU286      0.2287
    107  O          9.7150   17.0820    9.4090 O.2   286  LEU286     -0.2864
    108  CB         9.4880   14.1730    9.2180 C.3   286  LEU286      0.0297
    109  CG         8.3790   13.3700    9.9260 C.3   286  LEU286      0.0022
    110  CD1        8.8180   13.0880   11.3690 C.3   286  LEU286      0.0001
    111  CD2        7.0480   14.0340    9.8920 C.3   286  LEU286      0.0001
    112  N          6.4580   15.6220   13.3180 N.3   291  HIS291     -0.1241
    113  CA         7.3260   14.9200   14.3200 C.3   291  HIS291      0.1621
    114  C          6.7330   15.0300   15.7500 C.2   291  HIS291      0.2264
    115  O          6.5840   14.0530   16.4610 O.2   291  HIS291     -0.2867
    116  CB         8.7650   15.4660   14.3000 C.3   291  HIS291      0.0745
    117  CG         9.6670   14.8270   15.3220 C.ar  291  HIS291      0.0817
    118  ND1       10.4480   13.7350   15.0340 N.ar  291  HIS291     -0.2268
    119  CD2        9.8790   15.1000   16.6240 C.ar  291  HIS291      0.1154
    120  CE1       11.1190   13.3790   16.1130 C.ar  291  HIS291      0.1986
    121  NE2       10.7770   14.1800   17.0990 N.ar  291  HIS291     -0.2212
    122  N          3.7990   12.8170   15.9250 N.3   294  SER294     -0.1202
    123  CA         4.2010   11.4170   16.0020 C.3   294  SER294      0.2020
    124  C          4.7460   11.1030   17.3960 C.2   294  SER294      0.2618
    125  O          4.5330   10.0090   17.9290 O.2   294  SER294     -0.2717
    126  CB         5.2120   11.0880   14.8750 C.3   294  SER294      0.2103
    127  OG         6.4720   11.5890   15.2920 O.3   294  SER294     -0.2182
    128  N          5.4500   12.0420   18.0110 N.am  295  MET295     -0.1979
    129  CA         5.9480   11.8040   19.3900 C.3   295  MET295      0.1605
    130  C          4.7820   11.6040   20.3390 C.2   295  MET295      0.2287
    131  O          4.7860   10.6740   21.1010 O.2   295  MET295     -0.2864
    132  CB         6.8690   12.9060   19.8920 C.3   295  MET295      0.0413
    133  CG         8.2290   13.0250   19.2000 C.3   295  MET295      0.0598
    134  SD         9.2070   11.5290   19.1280 S.3   295  MET295     -0.1393
    135  CE         8.7730   10.8090   17.5210 C.3   295  MET295      0.0692
@<TRIPOS>BOND
     1    14    13    2
     2    13    12    1
     3    13    23   am
     4    26    25    2
     5    25    24    1
     6    12    15    1
     7    12    11    1
     8    24    23    1
     9    24    27    1
    10     4     3    2
    11    15    16    1
    12    17    16   ar
    13    17    19   ar
    14     3    11   am
    15     3     2    1
    16    16    18   ar
    17    27    28    1
    18    19    21   ar
    19     1     2    1
    20    97    94    1
    21    97    98    1
    22     2     5    1
    23    94    93    1
    24    94    95    1
    25    18    20   ar
    26    28    29   ar
    27    28    30   ar
    28    96    95    2
    29    21    20   ar
    30    21    22    1
    31    95   104   am
    32    98   100   ar
    33    98    99   ar
    34     5     6    1
    35   100   102   ar
    36    85    83   ar
    37    85    86   ar
    38    83    82   ar
    39    99   101   ar
    40   104   105    1
    41    78    77    1
    42    78    79    1
    43    78    81    1
    44   102   103   ar
    45    86    84   ar
    46     6     8   ar
    47     6     7   ar
    48   101   103   ar
    49    82    81    1
    50    82    84   ar
    51   105   106    1
    52   105   108    1
    53    79    80    2
    54     8    10   ar
    55   106   107    2
    56     7     9   ar
    57    90    89    2
    58   108   109    1
    59    48    46   ar
    60    10     9   ar
    61    47    46   ar
    62    41    42    1
    63    46    45    1
    64    89    88    1
    65   111   109    1
    66   109   110    1
    67    88    91    1
    68    88    87    1
    69    45    42    1
    70    42    43    1
    71    91    92    1
    72    40    38   ar
    73    40    39   ar
    74    38    36   ar
    75    43    44    2
    76    39    37   ar
    77    36    37   ar
    78    36    35    1
    79    33    34    2
    80    33    32    1
    81    35    32    1
    82    57    55   ar
    83   112   113    1
    84    64    63    1
    85    72    74   ar
    86    72    71   ar
    87    54    55    1
    88    54    53    1
    89    74    76   ar
    90    32    31    1
    91    55    56   ar
    92   116   113    1
    93   116   117    1
    94   113   114    1
    95    50    53    1
    96    50    51    1
    97    50    49    1
    98    70    71    1
    99    70    67    1
   100    71    73   ar
   101    63    65    1
   102    63    62    1
   103   126   127    1
   104   126   123    1
   105   118   117   ar
   106   118   120   ar
   107    51    52    2
   108    76    75   ar
   109    62    59    1
   110   117   119   ar
   111    69    68    2
   112    68    67    1
   113    61    60    2
   114   114   115    2
   115    67    66    1
   116   122   123    1
   117    73    75   ar
   118   123   124    1
   119   120   121   ar
   120   119   121   ar
   121    59    60    1
   122    59    58    1
   123   124   125    2
   124   124   128   am
   125   135   134    1
   126   128   129    1
   127   134   133    1
   128   133   132    1
   129   129   132    1
   130   129   130    1
   131   130   131    2
