@<TRIPOS>MOLECULE
tmp/2q0lB01.pdb
 180 175 0 0 0
SMALL
GASTEIGER

@<TRIPOS>ATOM
      1  N         23.6360   17.1290   14.7210 N.3   115  LYS115     -0.1231
      2  CA        24.4330   18.2880   14.3440 C.3   115  LYS115      0.1693
      3  C         23.5500   19.2300   13.5300 C.2   115  LYS115      0.2592
      4  O         22.8250   18.7990   12.6350 O.2   115  LYS115     -0.2718
      5  CB        25.6810   17.8790   13.5480 C.3   115  LYS115      0.0285
      6  CG        26.7890   17.2380   14.3920 C.3   115  LYS115      0.0035
      7  CD        28.0210   16.8820   13.5480 C.3   115  LYS115      0.0206
      8  CE        28.9000   15.8340   14.2280 C.3   115  LYS115      0.1093
      9  NZ        29.8040   15.1110   13.2840 N.3   115  LYS115     -0.1314
     10  N         23.5900   20.5030   13.8880 N.am  116  ARG116     -0.1966
     11  CA        22.8340   21.5120   13.1620 C.3   116  ARG116      0.1729
     12  C         23.7670   22.2890   12.2630 C.2   116  ARG116      0.2616
     13  O         24.9850   22.2380   12.4170 O.2   116  ARG116     -0.2715
     14  CB        22.1150   22.4320   14.1240 C.3   116  ARG116      0.0348
     15  CG        21.0800   21.7100   14.9690 C.3   116  ARG116      0.0492
     16  CD        20.0040   22.6510   15.3680 C.3   116  ARG116      0.2205
     17  NE        19.1480   22.1400   16.4360 N.pl3 116  ARG116     -0.0865
     18  CZ        18.0720   22.7830   16.8720 C.cat 116  ARG116      0.5346
     19  NH1       17.7170   23.9470   16.3260 N.pl3 116  ARG116      0.1354
     20  NH2       17.3460   22.2650   17.8510 N.pl3 116  ARG116      0.1354
     21  N         23.1670   23.0180   11.3340 N.am  117  THR117     -0.1951
     22  CA        23.8980   23.7180   10.2860 C.3   117  THR117      0.1897
     23  C         24.0200   25.2210   10.5010 C.2   117  THR117      0.2313
     24  O         24.9470   25.8290    9.9730 O.2   117  THR117     -0.2863
     25  CB        23.2030   23.5360    8.9390 C.3   117  THR117      0.1794
     26  OG1       21.8780   24.1010    9.0000 O.3   117  THR117     -0.2208
     27  CG2       23.1350   22.0650    8.5790 C.3   117  THR117      0.0378
     28  N         21.9380   27.1630    9.1120 N.3   119  ILE119     -0.1245
     29  CA        21.3120   27.7390    7.9230 C.3   119  ILE119      0.1561
     30  C         20.2110   28.7170    8.3470 C.2   119  ILE119      0.2260
     31  O         19.4820   28.4620    9.2970 O.2   119  ILE119     -0.2867
     32  CB        20.7220   26.6310    7.0100 C.3   119  ILE119      0.0252
     33  CG1       21.8510   25.8280    6.3710 C.3   119  ILE119      0.0019
     34  CG2       19.8410   27.2150    5.9040 C.3   119  ILE119      0.0019
     35  CD1       21.3930   24.4920    5.7660 C.3   119  ILE119      0.0001
     36  N         19.4960   16.8560    3.2300 N.3   149  LEU149     -0.1231
     37  CA        20.8230   17.4680    3.2350 C.3   149  LEU149      0.1693
     38  C         21.8630   16.5230    3.8300 C.2   149  LEU149      0.2593
     39  O         21.6680   15.9870    4.9220 O.2   149  LEU149     -0.2718
     40  CB        20.8070   18.7550    4.0560 C.3   149  LEU149      0.0284
     41  CG        22.1160   19.5500    4.0850 C.3   149  LEU149      0.0019
     42  CD1       22.4440   20.0560    2.6800 C.3   149  LEU149      0.0001
     43  CD2       22.0460   20.6950    5.0780 C.3   149  LEU149      0.0001
     44  N         22.9720   16.3290    3.1180 N.am  150  GLY150     -0.1942
     45  CA        24.1140   15.5590    3.6190 C.3   150  GLY150      0.2014
     46  C         24.6420   14.5750    2.5890 C.2   150  GLY150      0.2639
     47  O         23.9590   14.2580    1.6120 O.2   150  GLY150     -0.2714
     48  N         25.8660   14.1010    2.8060 N.am  151  GLY151     -0.1939
     49  CA        26.5150   13.1690    1.8770 C.3   151  GLY151      0.2014
     50  C         27.1590   11.9660    2.5360 C.2   151  GLY151      0.2639
     51  O         28.0100   11.3180    1.9320 O.2   151  GLY151     -0.2714
     52  N         26.7660   11.6620    3.7690 N.am  152  GLY152     -0.1939
     53  CA        27.2600   10.4850    4.4770 C.3   152  GLY152      0.2014
     54  C         26.2870    9.3300    4.3470 C.2   152  GLY152      0.2639
     55  O         25.2820    9.4150    3.6240 O.2   152  GLY152     -0.2714
     56  N         26.5830    8.2450    5.0560 N.am  153  ASP153     -0.1957
     57  CA        25.7410    7.0600    5.0250 C.3   153  ASP153      0.1840
     58  C         24.3170    7.3650    5.5130 C.2   153  ASP153      0.2623
     59  O         23.3480    6.8780    4.9340 O.2   153  ASP153     -0.2715
     60  CB        26.3610    5.9290    5.8570 C.3   153  ASP153      0.1450
     61  CG        27.5390    5.2710    5.1580 C.2   153  ASP153      0.3671
     62  OD1       27.3480    4.7640    4.0350 O.co2 153  ASP153     -0.2456
     63  OD2       28.6530    5.2750    5.7250 O.co2 153  ASP153     -0.2456
     64  N         24.1890    8.1970    6.5450 N.am  154  THR154     -0.1937
     65  CA        22.8680    8.5470    7.0650 C.3   154  THR154      0.2028
     66  C         22.0230    9.2950    6.0230 C.2   154  THR154      0.2642
     67  O         20.9000    8.9030    5.7410 O.2   154  THR154     -0.2714
     68  CB        22.9700    9.4040    8.3350 C.3   154  THR154      0.1808
     69  OG1       23.7700    8.7290    9.3090 O.3   154  THR154     -0.2208
     70  CG2       21.5950    9.6660    8.9190 C.3   154  THR154      0.0379
     71  N         22.5680   10.3540    5.4280 N.am  155  ALA155     -0.1977
     72  CA        21.8180   11.1280    4.4300 C.3   155  ALA155      0.1597
     73  C         21.3300   10.2670    3.2640 C.2   155  ALA155      0.2287
     74  O         20.1680   10.3280    2.8820 O.2   155  ALA155     -0.2864
     75  CB        22.6520   12.2840    3.9050 C.3   155  ALA155      0.0319
     76  N         21.1390    6.8760    2.9540 N.3   157  GLU157     -0.1245
     77  CA        20.2200    5.8340    3.4220 C.3   157  GLU157      0.1567
     78  C         18.8210    6.3890    3.6820 C.2   157  GLU157      0.2260
     79  O         17.8300    5.7580    3.3380 O.2   157  GLU157     -0.2867
     80  CB        20.7450    5.1720    4.7000 C.3   157  GLU157      0.0388
     81  CG        21.9290    4.2360    4.4720 C.3   157  GLU157      0.1160
     82  CD        22.4950    3.6530    5.7610 C.2   157  GLU157      0.3649
     83  OE1       21.8560    3.8030    6.8330 O.co2 157  GLU157     -0.2457
     84  OE2       23.5780    3.0200    5.7020 O.co2 157  GLU157     -0.2457
     85  N         23.8110   17.9210   -1.5980 N.3   173  HIS173     -0.1226
     86  CA        25.1230   17.7530   -0.9890 C.3   173  HIS173      0.1752
     87  C         26.1420   18.7200   -1.5990 C.2   173  HIS173      0.2596
     88  O         26.0580   19.0630   -2.7840 O.2   173  HIS173     -0.2718
     89  CB        25.5760   16.3000   -1.1230 C.3   173  HIS173      0.0759
     90  CG        26.9130   16.0220   -0.5150 C.ar  173  HIS173      0.0818
     91  ND1       27.2800   16.4780    0.7330 N.ar  173  HIS173     -0.2268
     92  CD2       27.9770   15.3350   -0.9930 C.ar  173  HIS173      0.1154
     93  CE1       28.5130   16.0870    0.9960 C.ar  173  HIS173      0.1986
     94  NE2       28.9560   15.3880   -0.0330 N.ar  173  HIS173     -0.2212
     95  N         27.0830   19.1620   -0.7680 N.am  174  ARG174     -0.1966
     96  CA        28.0030   20.2530   -1.1220 C.3   174  ARG174      0.1729
     97  C         29.1910   19.8550   -2.0010 C.2   174  ARG174      0.2616
     98  O         30.0040   20.7100   -2.3540 O.2   174  ARG174     -0.2715
     99  CB        28.5000   20.9550    0.1480 C.3   174  ARG174      0.0348
    100  CG        29.3570   20.1290    1.0820 C.3   174  ARG174      0.0492
    101  CD        29.5090   20.8700    2.3890 C.3   174  ARG174      0.2205
    102  NE        30.2750   20.1490    3.3940 N.pl3 174  ARG174     -0.0865
    103  CZ        30.4590   20.5770    4.6390 C.cat 174  ARG174      0.5346
    104  NH1       29.9250   21.7240    5.0340 N.pl3 174  ARG174      0.1354
    105  NH2       31.1750   19.8560    5.4940 N.pl3 174  ARG174      0.1354
    106  N         29.2960   18.5720   -2.3380 N.am  175  ARG175     -0.1977
    107  CA        30.2930   18.0840   -3.3030 C.3   175  ARG175      0.1597
    108  C         29.6560   17.0630   -4.2450 C.2   175  ARG175      0.2287
    109  O         28.6300   16.4580   -3.9270 O.2   175  ARG175     -0.2864
    110  CB        31.4560   17.4010   -2.5850 C.3   175  ARG175      0.0334
    111  CG        32.1470   18.2240   -1.5220 C.3   175  ARG175      0.0492
    112  CD        33.2420   17.4210   -0.8240 C.3   175  ARG175      0.2205
    113  NE        32.7300   16.2530   -0.0950 N.pl3 175  ARG175     -0.0865
    114  CZ        33.0120   14.9760   -0.3700 C.cat 175  ARG175      0.5346
    115  NH1       33.8020   14.6360   -1.3870 N.pl3 175  ARG175      0.1354
    116  NH2       32.4850   14.0120    0.3840 N.pl3 175  ARG175      0.1354
    117  N         30.6390   10.5020    0.9110 N.3   179  ARG179     -0.1245
    118  CA        31.4250    9.6320    1.8040 C.3   179  ARG179      0.1563
    119  C         30.6480    8.4160    2.3130 C.2   179  ARG179      0.2260
    120  O         31.1200    7.7000    3.1980 O.2   179  ARG179     -0.2867
    121  CB        32.0200   10.4220    2.9790 C.3   179  ARG179      0.0307
    122  CG        31.0220   11.1080    3.8900 C.3   179  ARG179      0.0489
    123  CD        31.7160   11.8280    5.0400 C.3   179  ARG179      0.2205
    124  NE        32.6940   12.8120    4.5770 N.pl3 179  ARG179     -0.0865
    125  CZ        33.3970   13.6230    5.3690 C.cat 179  ARG179      0.5346
    126  NH1       33.2310   13.6020    6.6910 N.pl3 179  ARG179      0.1354
    127  NH2       34.2660   14.4760    4.8290 N.pl3 179  ARG179      0.1354
    128  N         24.5970   24.0520   -1.8330 N.3   201  VAL201     -0.1245
    129  CA        24.3550   24.4020   -0.4330 C.3   201  VAL201      0.1561
    130  C         22.9820   25.0350   -0.2940 C.2   201  VAL201      0.2260
    131  O         22.4390   25.6050   -1.2410 O.2   201  VAL201     -0.2867
    132  CB        25.3960   25.3840    0.1180 C.3   201  VAL201      0.0252
    133  CG1       26.7660   24.7110    0.1760 C.3   201  VAL201      0.0019
    134  CG2       25.4200   26.6610   -0.7060 C.3   201  VAL201      0.0019
    135  N         20.7970   15.6250    7.6780 N.3   236  PHE236     -0.1227
    136  CA        21.6200   14.5210    8.1780 C.3   236  PHE236      0.1736
    137  C         23.0940   14.8600    7.9630 C.2   236  PHE236      0.2595
    138  O         23.7440   14.3350    7.0530 O.2   236  PHE236     -0.2718
    139  CB        21.2590   13.2100    7.4740 C.3   236  PHE236      0.0547
    140  CG        19.8330   12.8180    7.6460 C.ar  236  PHE236     -0.0202
    141  CD1       19.3640   12.4420    8.8860 C.ar  236  PHE236     -0.0042
    142  CD2       18.9550   12.8420    6.5730 C.ar  236  PHE236     -0.0042
    143  CE1       18.0250   12.0930    9.0480 C.ar  236  PHE236     -0.0003
    144  CE2       17.6370   12.4840    6.7340 C.ar  236  PHE236     -0.0003
    145  CZ        17.1730   12.1180    7.9760 C.ar  236  PHE236     -0.0000
    146  N         23.6070   15.7690    8.7870 N.am  237  VAL237     -0.1966
    147  CA        24.9900   16.2400    8.6460 C.3   237  VAL237      0.1727
    148  C         25.8650   15.7850    9.8120 C.2   237  VAL237      0.2617
    149  O         26.9320   16.3390   10.0520 O.2   237  VAL237     -0.2715
    150  CB        25.0620   17.7710    8.4660 C.3   237  VAL237      0.0290
    151  CG1       24.3880   18.1710    7.1550 C.3   237  VAL237      0.0023
    152  CG2       24.4690   18.5130    9.6560 C.3   237  VAL237      0.0023
    153  N         25.4070   14.7650   10.5210 N.am  238  GLY238     -0.1940
    154  CA        26.1750   14.2040   11.6020 C.3   238  GLY238      0.2014
    155  C         25.4370   14.2240   12.9090 C.2   238  GLY238      0.2638
    156  O         24.3280   14.7620   13.0480 O.2   238  GLY238     -0.2714
    157  N         26.0760   13.6270   13.8980 N.am  239  TYR239     -0.1973
    158  CA        25.4060   13.3430   15.1260 C.3   239  TYR239      0.1639
    159  C         26.4380   13.0710   16.1920 C.2   239  TYR239      0.2290
    160  O         27.4750   12.4760   15.9140 O.2   239  TYR239     -0.2864
    161  CB        24.5360   12.1140   14.9210 C.3   239  TYR239      0.0560
    162  CG        23.8010   11.7030   16.1500 C.ar  239  TYR239     -0.0198
    163  CD1       22.5130   12.1480   16.3870 C.ar  239  TYR239     -0.0009
    164  CD2       24.3960   10.8710   17.0850 C.ar  239  TYR239     -0.0009
    165  CE1       21.8370   11.7840   17.5160 C.ar  239  TYR239      0.0417
    166  CE2       23.7290   10.4990   18.2190 C.ar  239  TYR239      0.0417
    167  CZ        22.4520   10.9550   18.4300 C.ar  239  TYR239      0.1957
    168  OH        21.7840   10.5650   19.5580 O.3   239  TYR239     -0.2866
    169  N         32.2850    5.5630   18.3210 N.3   260  TYR260     -0.1241
    170  CA        31.5620    6.8280   18.2280 C.3   260  TYR260      0.1605
    171  C         31.2640    7.4700   19.5880 C.2   260  TYR260      0.2264
    172  O         30.6960    8.5580   19.6430 O.2   260  TYR260     -0.2867
    173  CB        30.2410    6.6130   17.4850 C.3   260  TYR260      0.0534
    174  CG        30.4120    6.0310   16.1070 C.ar  260  TYR260     -0.0201
    175  CD1       30.9710    6.7870   15.0850 C.ar  260  TYR260     -0.0009
    176  CD2       30.0110    4.7290   15.8220 C.ar  260  TYR260     -0.0009
    177  CE1       31.1360    6.2630   13.8190 C.ar  260  TYR260      0.0417
    178  CE2       30.1720    4.1920   14.5540 C.ar  260  TYR260      0.0417
    179  CZ        30.7300    4.9670   13.5570 C.ar  260  TYR260      0.1957
    180  OH        30.8920    4.4420   12.2960 O.3   260  TYR260     -0.2866
@<TRIPOS>BOND
     1   108   109    2
     2   108   107    1
     3   107   110    1
     4   107   106    1
     5    88    87    2
     6   110   111    1
     7    98    97    2
     8   106    97   am
     9    97    96    1
    10   128   129    1
    11    87    86    1
    12    87    95   am
    13    85    86    1
    14   111   112    1
    15   115   114    1
    16   131   130    2
    17    89    86    1
    18    89    90    1
    19    96    95    1
    20    96    99    1
    21    92    90   ar
    22    92    94   ar
    23   112   113    1
    24   134   132    1
    25    90    91   ar
    26   129   130    1
    27   129   132    1
    28   114   113    2
    29   114   116    1
    30    94    93   ar
    31   132   133    1
    32    99   100    1
    33    91    93   ar
    34   117   118    1
    35   100   101    1
    36    47    46    2
    37   118   119    1
    38   118   121    1
    39    49    50    1
    40    49    48    1
    41    51    50    2
    42   119   120    2
    43   101   102    1
    44    50    52   am
    45    46    48   am
    46    46    45    1
    47    42    41    1
    48    74    73    2
    49    76    77    1
    50   121   122    1
    51    44    45    1
    52    44    38   am
    53    36    37    1
    54    37    38    1
    55    37    40    1
    56    73    72    1
    57    79    78    2
    58   102   103    2
    59    77    78    1
    60    77    80    1
    61    55    54    2
    62    52    53    1
    63    38    39    2
    64   122   123    1
    65    75    72    1
    66    62    61   ar
    67    40    41    1
    68    41    43    1
    69    54    53    1
    70    54    56   am
    71    72    71    1
    72    81    80    1
    73    81    82    1
    74   124   123    1
    75   124   125    2
    76   103   104    1
    77   103   105    1
    78   127   125    1
    79    59    58    2
    80    57    56    1
    81    57    58    1
    82    57    60    1
    83    61    63   ar
    84    61    60    1
    85   125   126    1
    86    71    66   am
    87    58    64   am
    88    84    82   ar
    89    67    66    2
    90    82    83   ar
    91    35    33    1
    92    34    32    1
    93    66    65    1
    94    33    32    1
    95    64    65    1
    96   142   144   ar
    97   142   140   ar
    98   144   145   ar
    99    32    29    1
   100   138   137    2
   101    65    68    1
   102   151   150    1
   103   139   140    1
   104   139   136    1
   105   140   141   ar
   106   135   136    1
   107    29    30    1
   108    29    28    1
   109   137   136    1
   110   137   146   am
   111   145   143   ar
   112    68    70    1
   113    68    69    1
   114    30    31    2
   115   150   147    1
   116   150   152    1
   117    27    25    1
   118   147   146    1
   119   147   148    1
   120   141   143   ar
   121    25    26    1
   122    25    22    1
   123   148   149    2
   124   148   153   am
   125    24    23    2
   126    22    23    1
   127    22    21    1
   128   153   154    1
   129    21    12   am
   130   154   155    1
   131    12    13    2
   132    12    11    1
   133   180   179    1
   134     4     3    2
   135   155   156    2
   136   155   157   am
   137    11    10    1
   138    11    14    1
   139     9     8    1
   140     3    10   am
   141     3     2    1
   142     5     2    1
   143     5     6    1
   144     7     8    1
   145     7     6    1
   146   179   177   ar
   147   179   178   ar
   148   177   175   ar
   149   157   158    1
   150    14    15    1
   151     2     1    1
   152   178   176   ar
   153   161   158    1
   154   161   162    1
   155    15    16    1
   156   175   174   ar
   157   158   159    1
   158    16    17    1
   159   176   174   ar
   160   160   159    2
   161   174   173    1
   162   162   163   ar
   163   162   164   ar
   164    19    18    1
   165   163   165   ar
   166    17    18    2
   167    18    20    1
   168   164   166   ar
   169   173   170    1
   170   165   167   ar
   171   166   167   ar
   172   170   169    1
   173   170   171    1
   174   167   168    1
   175   171   172    2
