@<TRIPOS>MOLECULE
tmp/2q0mA00.pdb
 104 104 0 0 0
SMALL
GASTEIGER

@<TRIPOS>ATOM
      1  N          4.4290   24.5780   13.2380 N.3    35  GLU35      -0.1245
      2  CA         5.1340   23.7920   14.2470 C.3    35  GLU35       0.1567
      3  C          5.8430   22.5860   13.6250 C.2    35  GLU35       0.2260
      4  O          6.9830   22.2760   13.9780 O.2    35  GLU35      -0.2867
      5  CB         4.1880   23.3550   15.3710 C.3    35  GLU35       0.0388
      6  CG         3.6750   24.5020   16.2370 C.3    35  GLU35       0.1160
      7  CD         4.7180   25.0490   17.2010 C.2    35  GLU35       0.3649
      8  OE1        5.8540   24.5160   17.2360 O.co2  35  GLU35      -0.2457
      9  OE2        4.3990   26.0140   17.9200 O.co2  35  GLU35      -0.2457
     10  N         10.4620   18.7170   21.7380 N.3    52  ASP52      -0.1239
     11  CA         9.1150   18.9070   21.1870 C.3    52  ASP52       0.1674
     12  C          8.7350   17.7500   20.2550 C.2    52  ASP52       0.2266
     13  O          9.5320   17.3240   19.4110 O.2    52  ASP52      -0.2867
     14  CB         9.0180   20.2260   20.4120 C.3    52  ASP52       0.1410
     15  CG         9.2260   21.4590   21.2930 C.2    52  ASP52       0.3668
     16  OD1        9.1550   21.3580   22.5310 O.co2  52  ASP52      -0.2456
     17  OD2        9.4490   22.5500   20.7250 O.co2  52  ASP52      -0.2456
     18  N          4.1030   19.7970   18.2280 N.3    57  GLN57      -0.1231
     19  CA         5.3610   20.0700   18.9290 C.3    57  GLN57       0.1698
     20  C          5.2090   20.2920   20.4260 C.2    57  GLN57       0.2592
     21  O          5.6890   21.2760   20.9800 O.2    57  GLN57      -0.2718
     22  CB         6.0670   21.2470   18.2750 C.3    57  GLN57       0.0381
     23  CG         6.5540   20.8840   16.9100 C.3    57  GLN57       0.0905
     24  CD         7.7110   19.9180   16.9680 C.2    57  GLN57       0.2608
     25  OE1        8.8640   20.3340   17.1210 O.2    57  GLN57      -0.2717
     26  NE2        7.4230   18.6260   16.8230 N.am   57  GLN57      -0.0878
     27  N          4.5410   19.3380   21.0610 N.am   58  ILE58      -0.1966
     28  CA         4.2920   19.3490   22.4930 C.3    58  ILE58       0.1727
     29  C          5.5690   18.9780   23.2400 C.2    58  ILE58       0.2616
     30  O          6.2270   17.9920   22.8960 O.2    58  ILE58      -0.2715
     31  CB         3.1340   18.3920   22.8280 C.3    58  ILE58       0.0290
     32  CG1        1.8130   18.9740   22.3000 C.3    58  ILE58       0.0022
     33  CG2        3.0610   18.1070   24.3270 C.3    58  ILE58       0.0023
     34  CD1        0.6490   17.9800   22.2760 C.3    58  ILE58       0.0001
     35  N          5.8860   19.7850   24.2560 N.am   59  ASN59      -0.1972
     36  CA         7.1650   19.7870   24.9770 C.3    59  ASN59       0.1688
     37  C          7.2160   18.7830   26.1340 C.2    59  ASN59       0.2292
     38  O          6.3300   18.7560   26.9910 O.2    59  ASN59      -0.2864
     39  CB         7.4200   21.2080   25.5020 C.3    59  ASN59       0.1181
     40  CG         8.8610   21.4500   25.9140 C.2    59  ASN59       0.2629
     41  OD1        9.5830   20.5270   26.2560 O.2    59  ASN59      -0.2716
     42  ND2        9.2780   22.7130   25.8840 N.am   59  ASN59      -0.0877
     43  N          6.7690   19.5980   30.2150 N.3    62  TRP62      -0.1227
     44  CA         5.5420   19.5930   31.0050 C.3    62  TRP62       0.1737
     45  C          4.5950   18.4350   30.7070 C.2    62  TRP62       0.2595
     46  O          3.9570   17.9110   31.6200 O.2    62  TRP62      -0.2718
     47  CB         4.7820   20.9130   30.8130 C.3    62  TRP62       0.0564
     48  CG         5.5900   22.1410   31.1070 C.ar   62  TRP62       0.0003
     49  CD1        5.9610   22.5990   32.3370 C.ar   62  TRP62       0.0946
     50  CD2        6.1150   23.0810   30.1530 C.ar   62  TRP62       0.0152
     51  NE1        6.6920   23.7580   32.2110 N.ar   62  TRP62      -0.2442
     52  CE2        6.7970   24.0790   30.8830 C.ar   62  TRP62       0.0810
     53  CE3        6.0770   23.1730   28.7560 C.ar   62  TRP62       0.0012
     54  CZ2        7.4420   25.1590   30.2630 C.ar   62  TRP62       0.0191
     55  CZ3        6.7140   24.2530   28.1390 C.ar   62  TRP62       0.0001
     56  CH2        7.3880   25.2280   28.8930 C.ar   62  TRP62       0.0015
     57  N          4.5030   18.0270   29.4440 N.am   63  TRP63      -0.1976
     58  CA         3.3010   17.3170   28.9730 C.3    63  TRP63       0.1640
     59  C          3.4140   15.8130   28.7150 C.2    63  TRP63       0.2290
     60  O          2.4140   15.1040   28.7840 O.2    63  TRP63      -0.2864
     61  CB         2.7140   18.0230   27.7380 C.3    63  TRP63       0.0576
     62  CG         2.5510   19.4920   27.9410 C.ar   63  TRP63       0.0006
     63  CD1        3.3190   20.4840   27.4220 C.ar   63  TRP63       0.0946
     64  CD2        1.5620   20.1310   28.7530 C.ar   63  TRP63       0.0152
     65  NE1        2.8700   21.7090   27.8580 N.ar   63  TRP63      -0.2442
     66  CE2        1.7900   21.5170   28.6780 C.ar   63  TRP63       0.0810
     67  CE3        0.5070   19.6610   29.5410 C.ar   63  TRP63       0.0012
     68  CZ2        0.9990   22.4440   29.3590 C.ar   63  TRP63       0.0191
     69  CZ3       -0.2820   20.5820   30.2110 C.ar   63  TRP63       0.0001
     70  CH2       -0.0310   21.9560   30.1130 C.ar   63  TRP63       0.0015
     71  N         -3.4850   21.3780   27.2280 N.3    98  ILE98      -0.1245
     72  CA        -2.5700   22.5000   27.0720 C.3    98  ILE98       0.1561
     73  C         -3.3330   23.7970   26.8230 C.2    98  ILE98       0.2260
     74  O         -3.1320   24.7910   27.5190 O.2    98  ILE98      -0.2867
     75  CB        -1.5530   22.2410   25.9180 C.3    98  ILE98       0.0252
     76  CG1       -0.7130   20.9900   26.2290 C.3    98  ILE98       0.0019
     77  CG2       -0.6530   23.4660   25.6960 C.3    98  ILE98       0.0019
     78  CD1        0.1720   20.5130   25.0890 C.3    98  ILE98       0.0001
     79  N          0.4470   29.1780   24.2520 N.3   107  ALA107     -0.1231
     80  CA         1.3950   28.1340   24.6240 C.3   107  ALA107      0.1694
     81  C          2.2380   27.7110   23.4220 C.2   107  ALA107      0.2592
     82  O          3.3890   27.3080   23.5850 O.2   107  ALA107     -0.2718
     83  CB         0.6620   26.9280   25.2150 C.3   107  ALA107      0.0304
     84  N          1.6600   27.7980   22.2220 N.am  108  TRP108     -0.1962
     85  CA         2.3660   27.4880   20.9800 C.3   108  TRP108      0.1771
     86  C          3.0150   28.7480   20.4450 C.2   108  TRP108      0.2619
     87  O          2.3560   29.5810   19.8280 O.2   108  TRP108     -0.2715
     88  CB         1.4140   26.8780   19.9380 C.3   108  TRP108      0.0590
     89  CG         1.0720   25.4630   20.2730 C.ar  108  TRP108      0.0006
     90  CD1        1.8300   24.3530   20.0130 C.ar  108  TRP108      0.0946
     91  CD2       -0.0850   25.0080   20.9810 C.ar  108  TRP108      0.0152
     92  NE1        1.2040   23.2320   20.5080 N.ar  108  TRP108     -0.2442
     93  CE2        0.0250   23.6060   21.1020 C.ar  108  TRP108      0.0810
     94  CE3       -1.2100   25.6470   21.5170 C.ar  108  TRP108      0.0012
     95  CZ2       -0.9410   22.8310   21.7450 C.ar  108  TRP108      0.0191
     96  CZ3       -2.1780   24.8680   22.1610 C.ar  108  TRP108      0.0001
     97  CH2       -2.0350   23.4750   22.2610 C.ar  108  TRP108      0.0015
     98  N          4.3070   28.8960   20.7010 N.am  109  VAL109     -0.1977
     99  CA         4.9980   30.1170   20.2950 C.3   109  VAL109      0.1596
    100  C          4.7900   30.4310   18.8100 C.2   109  VAL109      0.2287
    101  O          4.5650   31.5900   18.4410 O.2   109  VAL109     -0.2864
    102  CB         6.4980   30.0770   20.6690 C.3   109  VAL109      0.0276
    103  CG1        7.1730   31.3620   20.2550 C.3   109  VAL109      0.0022
    104  CG2        6.6410   29.8810   22.1730 C.3   109  VAL109      0.0022
@<TRIPOS>BOND
     1     1     2    1
     2     3     4    2
     3     3     2    1
     4     2     5    1
     5     5     6    1
     6     6     7    1
     7    26    24   am
     8    23    24    1
     9    23    22    1
    10    24    25    2
    11     7     8   ar
    12     7     9   ar
    13    18    19    1
    14    22    19    1
    15   101   100    2
    16   100    99    1
    17    19    20    1
    18    13    12    2
    19    87    86    2
    20    88    89    1
    21    88    85    1
    22    90    89   ar
    23    90    92   ar
    24    12    11    1
    25   103   102    1
    26    89    91   ar
    27    99   102    1
    28    99    98    1
    29    14    11    1
    30    14    15    1
    31    20    21    2
    32    20    27   am
    33    86    98   am
    34    86    85    1
    35    92    93   ar
    36   102   104    1
    37    17    15   ar
    38    85    84    1
    39    91    93   ar
    40    91    94   ar
    41    27    28    1
    42    93    95   ar
    43    11    10    1
    44    15    16   ar
    45    94    96   ar
    46    95    97   ar
    47    96    97   ar
    48    84    81   am
    49    34    32    1
    50    32    31    1
    51    28    31    1
    52    28    29    1
    53    31    33    1
    54    30    29    2
    55    29    35   am
    56    81    82    2
    57    81    80    1
    58    79    80    1
    59    35    36    1
    60    80    83    1
    61    36    39    1
    62    36    37    1
    63    78    76    1
    64    39    40    1
    65    77    75    1
    66    42    40   am
    67    40    41    2
    68    75    76    1
    69    75    72    1
    70    37    38    2
    71    73    72    1
    72    73    74    2
    73    72    71    1
    74    63    65   ar
    75    63    62   ar
    76    61    62    1
    77    61    58    1
    78    65    66   ar
    79    62    64   ar
    80    55    53   ar
    81    55    56   ar
    82    66    64   ar
    83    66    68   ar
    84    59    60    2
    85    59    58    1
    86    64    67   ar
    87    53    50   ar
    88    56    54   ar
    89    58    57    1
    90    68    70   ar
    91    57    45   am
    92    67    69   ar
    93    70    69   ar
    94    50    52   ar
    95    50    48   ar
    96    43    44    1
    97    54    52   ar
    98    45    44    1
    99    45    46    2
   100    47    44    1
   101    47    48    1
   102    52    51   ar
   103    48    49   ar
   104    51    49   ar
