@<TRIPOS>MOLECULE
tmp/2q0oB00.pdb
 186 180 0 0 0
SMALL
GASTEIGER

@<TRIPOS>ATOM
      1  N         26.4120   19.3260  -13.5290 N.3    39  ALA39      -0.1245
      2  CA        26.2210   18.8820  -14.8920 C.3    39  ALA39       0.1562
      3  C         24.7540   18.8670  -15.2520 C.2    39  ALA39       0.2260
      4  O         23.9220   18.3640  -14.5040 O.2    39  ALA39      -0.2867
      5  CB        26.8230   17.4840  -15.0780 C.3    39  ALA39       0.0290
      6  N         22.1820   17.6110  -18.1900 N.3    41  LEU41      -0.1245
      7  CA        22.1180   16.6810  -19.3110 C.3    41  LEU41       0.1561
      8  C         20.6920   16.6500  -19.8580 C.2    41  LEU41       0.2260
      9  O         19.7260   16.6920  -19.1050 O.2    41  LEU41      -0.2867
     10  CB        22.5560   15.2770  -18.8670 C.3    41  LEU41       0.0270
     11  CG        22.5560   14.1640  -19.9310 C.3    41  LEU41       0.0019
     12  CD1       23.6770   13.1700  -19.6450 C.3    41  LEU41       0.0001
     13  CD2       21.1930   13.4640  -19.9620 C.3    41  LEU41       0.0001
     14  N         24.6920   18.1690  -23.1290 N.3    50  THR50      -0.1218
     15  CA        25.0990   18.4780  -21.7600 C.3    50  THR50       0.1862
     16  C         25.7270   19.8610  -21.6480 C.2    50  THR50       0.2287
     17  O         26.2520   20.4070  -22.6190 O.2    50  THR50      -0.2866
     18  CB        26.1260   17.4620  -21.2050 C.3    50  THR50       0.1770
     19  OG1       27.3800   17.6220  -21.8820 O.3    50  THR50      -0.2211
     20  CG2       25.6290   16.0360  -21.3960 C.3    50  THR50       0.0375
     21  N         28.0970   21.3890  -18.5700 N.3    52  HIS52      -0.1241
     22  CA        28.6730   20.9970  -17.2860 C.3    52  HIS52       0.1621
     23  C         30.0220   21.6250  -16.9520 C.2    52  HIS52       0.2264
     24  O         30.6560   22.2710  -17.7830 O.2    52  HIS52      -0.2867
     25  CB        28.8740   19.4800  -17.2720 C.3    52  HIS52       0.0745
     26  CG        29.9060   19.0260  -18.2550 C.ar   52  HIS52       0.0817
     27  ND1       29.6440   18.9170  -19.6060 N.ar   52  HIS52      -0.2268
     28  CD2       31.2320   18.7950  -18.1090 C.ar   52  HIS52       0.1154
     29  CE1       30.7660   18.6470  -20.2480 C.ar   52  HIS52       0.1986
     30  NE2       31.7440   18.5690  -19.3630 N.ar   52  HIS52      -0.2212
     31  N         32.3320   19.5030  -15.3470 N.3    54  TYR54      -0.1241
     32  CA        33.1610   18.3300  -15.0440 C.3    54  TYR54       0.1605
     33  C         34.4950   18.5320  -15.7850 C.2    54  TYR54       0.2264
     34  O         34.5270   19.1900  -16.8220 O.2    54  TYR54      -0.2867
     35  CB        32.4700   17.0490  -15.5250 C.3    54  TYR54       0.0534
     36  CG        31.3370   16.5510  -14.6420 C.ar   54  TYR54      -0.0201
     37  CD1       30.8030   17.3440  -13.6260 C.ar   54  TYR54      -0.0009
     38  CD2       30.8040   15.2800  -14.8230 C.ar   54  TYR54      -0.0009
     39  CE1       29.7690   16.8770  -12.8140 C.ar   54  TYR54       0.0417
     40  CE2       29.7720   14.8050  -14.0210 C.ar   54  TYR54       0.0417
     41  CZ        29.2620   15.6070  -13.0200 C.ar   54  TYR54       0.1957
     42  OH        28.2410   15.1290  -12.2380 O.3    54  TYR54      -0.2866
     43  N         37.8220   13.8620  -18.1410 N.3    58  TRP58      -0.1227
     44  CA        36.7030   12.9680  -17.8620 C.3    58  TRP58       0.1737
     45  C         35.6340   13.0580  -18.9370 C.2    58  TRP58       0.2595
     46  O         34.9710   12.0730  -19.2330 O.2    58  TRP58      -0.2718
     47  CB        36.0910   13.2870  -16.4930 C.3    58  TRP58       0.0564
     48  CG        34.8650   12.4650  -16.1440 C.ar   58  TRP58       0.0003
     49  CD1       33.6660   12.9400  -15.6910 C.ar   58  TRP58       0.0946
     50  CD2       34.7350   11.0360  -16.1920 C.ar   58  TRP58       0.0152
     51  NE1       32.7970   11.8990  -15.4510 N.ar   58  TRP58      -0.2442
     52  CE2       33.4250   10.7200  -15.7500 C.ar   58  TRP58       0.0810
     53  CE3       35.5930    9.9930  -16.5660 C.ar   58  TRP58       0.0012
     54  CZ2       32.9540    9.4030  -15.6740 C.ar   58  TRP58       0.0191
     55  CZ3       35.1240    8.6790  -16.4920 C.ar   58  TRP58       0.0001
     56  CH2       33.8130    8.3990  -16.0490 C.ar   58  TRP58       0.0015
     57  N         35.4640   14.2330  -19.5340 N.am   59  GLU59      -0.1979
     58  CA        34.4510   14.3960  -20.5780 C.3    59  GLU59       0.1602
     59  C         34.8260   13.6460  -21.8530 C.2    59  GLU59       0.2287
     60  O         33.9650   13.0610  -22.5100 O.2    59  GLU59      -0.2864
     61  CB        34.2370   15.8730  -20.9220 C.3    59  GLU59       0.0415
     62  CG        33.0620   16.0960  -21.8780 C.3    59  GLU59       0.1163
     63  CD        33.0340   17.4900  -22.4820 C.2    59  GLU59       0.3649
     64  OE1       31.9620   17.9100  -22.9710 O.co2  59  GLU59      -0.2457
     65  OE2       34.0880   18.1600  -22.4780 O.co2  59  GLU59      -0.2457
     66  N         34.2260   10.0020  -21.1130 N.3    62  TYR62      -0.1227
     67  CA        32.7850    9.7810  -21.0390 C.3    62  TYR62       0.1736
     68  C         32.1240    9.6920  -22.4110 C.2    62  TYR62       0.2595
     69  O         31.3040    8.8110  -22.6580 O.2    62  TYR62      -0.2718
     70  CB        32.1350   10.8940  -20.2090 C.3    62  TYR62       0.0548
     71  CG        30.7810   10.5310  -19.6300 C.ar   62  TYR62      -0.0200
     72  CD1       29.6470   10.4810  -20.4320 C.ar   62  TYR62      -0.0009
     73  CD2       30.6410   10.2310  -18.2730 C.ar   62  TYR62      -0.0009
     74  CE1       28.4040   10.1420  -19.9030 C.ar   62  TYR62       0.0417
     75  CE2       29.4020    9.8910  -17.7340 C.ar   62  TYR62       0.0417
     76  CZ        28.2920    9.8500  -18.5570 C.ar   62  TYR62       0.1957
     77  OH        27.0670    9.5220  -18.0400 O.3    62  TYR62      -0.2866
     78  N         32.4710   10.6130  -23.2990 N.am   63  LEU63      -0.1980
     79  CA        31.9150   10.6150  -24.6490 C.3    63  LEU63       0.1596
     80  C         32.6160    9.5540  -25.4990 C.2    63  LEU63       0.2287
     81  O         31.9780    8.8560  -26.2890 O.2    63  LEU63      -0.2864
     82  CB        32.0950   11.9930  -25.2900 C.3    63  LEU63       0.0297
     83  CG        31.0770   13.0930  -24.9670 C.3    63  LEU63       0.0022
     84  CD1       30.6220   13.0100  -23.5150 C.3    63  LEU63       0.0001
     85  CD2       31.7140   14.4450  -25.2710 C.3    63  LEU63       0.0001
     86  N         27.1300    6.9670  -21.3050 N.3    68  PHE68      -0.1241
     87  CA        25.7300    7.3000  -21.0480 C.3    68  PHE68       0.1605
     88  C         24.9770    5.9990  -20.8440 C.2    68  PHE68       0.2264
     89  O         24.0910    5.9020  -19.9970 O.2    68  PHE68      -0.2867
     90  CB        25.0820    8.0140  -22.2430 C.3    68  PHE68       0.0534
     91  CG        25.8280    9.2150  -22.7220 C.ar   68  PHE68      -0.0203
     92  CD1       26.4760    9.1950  -23.9550 C.ar   68  PHE68      -0.0042
     93  CD2       25.8800   10.3720  -21.9530 C.ar   68  PHE68      -0.0042
     94  CE1       27.1710   10.3170  -24.4200 C.ar   68  PHE68      -0.0003
     95  CE2       26.5720   11.5020  -22.4050 C.ar   68  PHE68      -0.0003
     96  CZ        27.2200   11.4730  -23.6420 C.ar   68  PHE68      -0.0000
     97  N         26.0670    4.6450  -17.1250 N.3    71  ASP71      -0.1239
     98  CA        26.0370    5.4870  -15.9390 C.3    71  ASP71       0.1674
     99  C         24.8650    5.1090  -15.0400 C.2    71  ASP71       0.2266
    100  O         23.7060    5.2960  -15.4050 O.2    71  ASP71      -0.2867
    101  CB        25.9030    6.9500  -16.3350 C.3    71  ASP71       0.1410
    102  CG        26.2170    7.8880  -15.1920 C.2    71  ASP71       0.3668
    103  OD1       25.9310    7.5380  -14.0230 O.co2  71  ASP71      -0.2456
    104  OD2       26.7420    8.9850  -15.4720 O.co2  71  ASP71      -0.2456
    105  N         23.8160    6.6170  -12.6540 N.3    73  VAL73      -0.1231
    106  CA        23.0890    7.8470  -12.3610 C.3    73  VAL73       0.1692
    107  C         21.9620    8.1140  -13.3630 C.2    73  VAL73       0.2591
    108  O         20.8370    8.3890  -12.9620 O.2    73  VAL73      -0.2718
    109  CB        24.0340    9.0710  -12.3140 C.3    73  VAL73       0.0266
    110  CG1       23.2180   10.3610  -12.1740 C.3    73  VAL73       0.0020
    111  CG2       24.9920    8.9420  -11.1240 C.3    73  VAL73       0.0020
    112  N         22.2480    8.0320  -14.6600 N.am   74  LEU74      -0.1980
    113  CA        21.2120    8.2720  -15.6620 C.3    74  LEU74       0.1596
    114  C         20.1030    7.2210  -15.5930 C.2    74  LEU74       0.2287
    115  O         18.9200    7.5520  -15.6580 O.2    74  LEU74      -0.2864
    116  CB        21.7970    8.2690  -17.0760 C.3    74  LEU74       0.0297
    117  CG        23.0110    9.1390  -17.3900 C.3    74  LEU74       0.0022
    118  CD1       23.1210    9.2930  -18.9090 C.3    74  LEU74       0.0001
    119  CD2       22.8760   10.5020  -16.7300 C.3    74  LEU74       0.0001
    120  N         23.3600    9.8090   -4.7970 N.3    86  TRP86      -0.1241
    121  CA        24.0430    8.6450   -5.3400 C.3    86  TRP86       0.1605
    122  C         25.5140    8.7200   -4.9910 C.2    86  TRP86       0.2264
    123  O         26.0480    9.8010   -4.7650 O.2    86  TRP86      -0.2867
    124  CB        23.9090    8.5780   -6.8690 C.3    86  TRP86       0.0550
    125  CG        24.2890    9.8520   -7.5860 C.ar   86  TRP86       0.0003
    126  CD1       23.4470   10.8570   -7.9690 C.ar   86  TRP86       0.0946
    127  CD2       25.6030   10.2490   -8.0050 C.ar   86  TRP86       0.0152
    128  NE1       24.1530   11.8490   -8.6040 N.ar   86  TRP86      -0.2442
    129  CE2       25.4780   11.5020   -8.6400 C.ar   86  TRP86       0.0810
    130  CE3       26.8740    9.6640   -7.9070 C.ar   86  TRP86       0.0012
    131  CZ2       26.5780   12.1860   -9.1740 C.ar   86  TRP86       0.0191
    132  CZ3       27.9690   10.3430   -8.4390 C.ar   86  TRP86       0.0001
    133  CH2       27.8120   11.5930   -9.0640 C.ar   86  TRP86       0.0015
    134  N         29.0980    1.0270   -6.3590 N.3    91  TRP91      -0.1241
    135  CA        29.3290    0.2720   -7.5860 C.3    91  TRP91       0.1605
    136  C         30.5310   -0.6710   -7.4540 C.2    91  TRP91       0.2264
    137  O         31.4020   -0.4640   -6.6090 O.2    91  TRP91      -0.2867
    138  CB        29.5260    1.2370   -8.7580 C.3    91  TRP91       0.0550
    139  CG        28.4470    2.2860   -8.8410 C.ar   91  TRP91       0.0003
    140  CD1       27.1370    2.1460   -8.4760 C.ar   91  TRP91       0.0946
    141  CD2       28.5830    3.6270   -9.3350 C.ar   91  TRP91       0.0152
    142  NE1       26.4530    3.3140   -8.7100 N.ar   91  TRP91      -0.2442
    143  CE2       27.3150    4.2380   -9.2390 C.ar   91  TRP91       0.0810
    144  CE3       29.6540    4.3680   -9.8510 C.ar   91  TRP91       0.0012
    145  CZ2       27.0850    5.5590   -9.6420 C.ar   91  TRP91       0.0191
    146  CZ3       29.4260    5.6860  -10.2510 C.ar   91  TRP91       0.0001
    147  CH2       28.1520    6.2630  -10.1440 C.ar   91  TRP91       0.0015
    148  N         34.1090    2.0800  -14.7650 N.3   102  PHE102     -0.1241
    149  CA        33.4030    3.3540  -14.7110 C.3   102  PHE102      0.1605
    150  C         33.6080    3.9450  -13.3210 C.2   102  PHE102      0.2264
    151  O         33.8330    5.1390  -13.1760 O.2   102  PHE102     -0.2867
    152  CB        31.9070    3.1590  -14.9650 C.3   102  PHE102      0.0534
    153  CG        31.1200    4.4420  -14.9590 C.ar  102  PHE102     -0.0203
    154  CD1       31.3590    5.4240  -15.9180 C.ar  102  PHE102     -0.0042
    155  CD2       30.1440    4.6700  -13.9930 C.ar  102  PHE102     -0.0042
    156  CE1       30.6380    6.6180  -15.9150 C.ar  102  PHE102     -0.0003
    157  CE2       29.4130    5.8610  -13.9750 C.ar  102  PHE102     -0.0003
    158  CZ        29.6610    6.8380  -14.9390 C.ar  102  PHE102     -0.0000
    159  N         35.5740    7.5350  -12.6630 N.3   106  ALA106     -0.1245
    160  CA        34.7600    8.6170  -12.1230 C.3   106  ALA106      0.1562
    161  C         35.4320    9.1830  -10.8800 C.2   106  ALA106      0.2260
    162  O         35.6500   10.3930  -10.7770 O.2   106  ALA106     -0.2867
    163  CB        33.3640    8.1080  -11.7740 C.3   106  ALA106      0.0290
    164  N         34.5470   12.8110   -9.4060 N.3   111  ILE111     -0.1245
    165  CA        33.0930   12.6200   -9.4170 C.3   111  ILE111      0.1561
    166  C         32.7050   11.3880   -8.5950 C.2   111  ILE111      0.2260
    167  O         32.3400   10.3570   -9.1460 O.2   111  ILE111     -0.2867
    168  CB        32.5800   12.4360  -10.8500 C.3   111  ILE111      0.0252
    169  CG1       33.0990   13.5700  -11.7430 C.3   111  ILE111      0.0019
    170  CG2       31.0650   12.4170  -10.8520 C.3   111  ILE111      0.0019
    171  CD1       32.6460   14.9920  -11.3220 C.3   111  ILE111      0.0001
    172  N         18.0660   16.4350  -16.5850 N.3   128  MET128     -0.1245
    173  CA        18.5430   16.2470  -15.2220 C.3   128  MET128      0.1570
    174  C         19.6700   17.2000  -14.8790 C.2   128  MET128      0.2261
    175  O         20.4380   17.6100  -15.7460 O.2   128  MET128     -0.2867
    176  CB        18.9820   14.7970  -14.9940 C.3   128  MET128      0.0387
    177  CG        20.0470   14.2910  -15.9310 C.3   128  MET128      0.0595
    178  SD        20.3790   12.5390  -15.6330 S.3   128  MET128     -0.1393
    179  CE        21.6420   12.6410  -14.3630 C.3   128  MET128      0.0692
    180  N         22.7440   17.6490  -12.0220 N.3   130  THR130     -0.1218
    181  CA        23.4950   16.9910  -10.9690 C.3   130  THR130      0.1862
    182  C         24.5420   17.9170  -10.3540 C.2   130  THR130      0.2287
    183  O         25.0770   18.8050  -11.0160 O.2   130  THR130     -0.2866
    184  CB        24.2400   15.7490  -11.5350 C.3   130  THR130      0.1770
    185  OG1       23.2970   14.8640  -12.1460 O.3   130  THR130     -0.2211
    186  CG2       25.0000   15.0090  -10.4290 C.3   130  THR130      0.0375
@<TRIPOS>BOND
     1    81    80    2
     2    80    79    1
     3    82    83    1
     4    82    79    1
     5    85    83    1
     6    83    84    1
     7    79    78    1
     8    94    92   ar
     9    94    96   ar
    10    92    91   ar
    11    96    95   ar
    12    78    68   am
    13    14    15    1
    14    64    63   ar
    15    91    90    1
    16    91    93   ar
    17    69    68    2
    18    17    16    2
    19    60    59    2
    20    63    65   ar
    21    63    62    1
    22    68    67    1
    23    95    93   ar
    24    90    87    1
    25    19    18    1
    26    62    61    1
    27    59    58    1
    28    15    16    1
    29    15    18    1
    30    20    18    1
    31    86    87    1
    32    66    67    1
    33    87    88    1
    34    67    70    1
    35    61    58    1
    36    88    89    2
    37    58    57    1
    38    72    74   ar
    39    72    71   ar
    40    29    27   ar
    41    29    30   ar
    42    70    71    1
    43    13    11    1
    44    11    12    1
    45    11    10    1
    46    74    76   ar
    47     8     7    1
    48     8     9    2
    49    71    73   ar
    50    27    26   ar
    51    57    45   am
    52    30    28   ar
    53     7    10    1
    54     7     6    1
    55    46    45    2
    56    45    44    1
    57   118   117    1
    58    21    22    1
    59    76    77    1
    60    76    75   ar
    61    73    75   ar
    62    26    28   ar
    63    26    25    1
    64    43    44    1
    65    44    47    1
    66    24    23    2
    67   117   116    1
    68   117   119    1
    69    22    25    1
    70    22    23    1
    71    97    98    1
    72   116   113    1
    73    34    33    2
    74   172   173    1
    75    53    55   ar
    76    53    50   ar
    77    47    48    1
    78    55    56   ar
    79   101    98    1
    80   101   102    1
    81    50    48   ar
    82    50    52   ar
    83    48    49   ar
    84    56    54   ar
    85    98    99    1
    86   177   178    1
    87   177   176    1
    88   154   156   ar
    89   154   153   ar
    90   156   158   ar
    91    33    32    1
    92    52    54   ar
    93    52    51   ar
    94   175   174    2
    95    49    51   ar
    96   113   114    1
    97   113   112    1
    98   115   114    2
    99   178   179    1
   100    35    32    1
   101    35    36    1
   102   104   102   ar
   103   100    99    2
   104    31    32    1
   105     3     2    1
   106     3     4    2
   107   173   176    1
   108   173   174    1
   109   102   103   ar
   110     5     2    1
   111   152   153    1
   112   152   149    1
   113   153   155   ar
   114   158   157   ar
   115     2     1    1
   116    38    36   ar
   117    38    40   ar
   118   148   149    1
   119   149   150    1
   120   112   107   am
   121    36    37   ar
   122    40    41   ar
   123   155   157   ar
   124    37    39   ar
   125   107   108    2
   126   107   106    1
   127   150   151    2
   128    41    39   ar
   129    41    42    1
   130   159   160    1
   131   105   106    1
   132   106   109    1
   133   109   110    1
   134   109   111    1
   135   185   184    1
   136   160   163    1
   137   160   161    1
   138   180   181    1
   139   169   171    1
   140   169   168    1
   141   184   181    1
   142   184   186    1
   143   183   182    2
   144   181   182    1
   145   161   162    2
   146   170   168    1
   147   168   165    1
   148   146   147   ar
   149   146   144   ar
   150   147   145   ar
   151   144   141   ar
   152   145   143   ar
   153   165   164    1
   154   165   166    1
   155   141   143   ar
   156   141   139   ar
   157   143   142   ar
   158   131   133   ar
   159   131   129   ar
   160   167   166    2
   161   133   132   ar
   162   139   138    1
   163   139   140   ar
   164   138   135    1
   165   142   140   ar
   166   129   128   ar
   167   129   127   ar
   168   128   126   ar
   169   132   130   ar
   170   127   130   ar
   171   127   125   ar
   172   126   125   ar
   173   135   136    1
   174   135   134    1
   175   125   124    1
   176   136   137    2
   177   124   121    1
   178   121   122    1
   179   121   120    1
   180   122   123    2
