@<TRIPOS>MOLECULE
tmp/2q0rA01.pdb
 182 178 0 0 0
SMALL
GASTEIGER

@<TRIPOS>ATOM
      1  N          3.2590    2.5060   20.1390 N.3    60  ILE60      -0.1245
      2  CA         2.6640    2.3920   18.8090 C.3    60  ILE60       0.1561
      3  C          2.8140    3.7020   18.0410 C.2    60  ILE60       0.2260
      4  O          2.5600    4.7840   18.5710 O.2    60  ILE60      -0.2867
      5  CB         1.1630    2.0400   18.9190 C.3    60  ILE60       0.0252
      6  CG1        0.9150    0.8250   19.8290 C.3    60  ILE60       0.0019
      7  CG2        0.5860    1.8400   17.5170 C.3    60  ILE60       0.0019
      8  CD1        1.5820   -0.4520   19.4080 C.3    60  ILE60       0.0001
      9  N          9.7290   -2.9440   17.4750 N.3    92  GLU92      -0.1231
     10  CA         8.2920   -2.7040   17.5880 C.3    92  GLU92       0.1699
     11  C          7.8120   -3.2400   18.9220 C.2    92  GLU92       0.2592
     12  O          8.5150   -4.0500   19.5680 O.2    92  GLU92      -0.2718
     13  CB         7.5320   -3.3970   16.4490 C.3    92  GLU92       0.0402
     14  CG         7.5270   -4.9330   16.5210 C.3    92  GLU92       0.1161
     15  CD         6.9720   -5.6040   15.2800 C.2    92  GLU92       0.3649
     16  OE1        6.1220   -4.9710   14.6020 O.co2  92  GLU92      -0.2457
     17  OE2        7.3850   -6.7780   15.0060 O.co2  92  GLU92      -0.2457
     18  N          6.6110   -2.8120   19.2880 N.am   93  ALA93      -0.1966
     19  CA         5.9340   -3.2850   20.4840 C.3    93  ALA93       0.1713
     20  C          5.5700   -4.7580   20.3170 C.2    93  ALA93       0.2458
     21  O          5.3350   -5.2200   19.2000 O.2    93  ALA93      -0.2730
     22  CB         4.6890   -2.4530   20.7520 C.3    93  ALA93       0.0333
     23  N          5.5260   -5.5200   21.4190 N.am   94  PRO94      -0.2716
     24  CA         5.0950   -6.9070   21.3320 C.3    94  PRO94       0.1536
     25  C          3.7160   -7.1770   20.7440 C.2    94  PRO94       0.2598
     26  O          3.4950   -8.2680   20.2200 O.2    94  PRO94      -0.2715
     27  CB         5.1610   -7.3880   22.7920 C.3    94  PRO94       0.0310
     28  CG         6.2140   -6.5150   23.4050 C.3    94  PRO94       0.0237
     29  CD         5.9520   -5.1770   22.7900 C.3    94  PRO94       0.0939
     30  N          2.8080   -6.2100   20.8530 N.am   95  LEU95      -0.1964
     31  CA         1.5280   -6.2130   20.1470 C.3    95  LEU95       0.1728
     32  C          1.5150   -4.9550   19.2990 C.2    95  LEU95       0.2616
     33  O          1.5480   -3.8380   19.8180 O.2    95  LEU95      -0.2715
     34  CB         0.3570   -6.2560   21.1170 C.3    95  LEU95       0.0311
     35  CG         0.3350   -7.4480   22.0880 C.3    95  LEU95       0.0022
     36  CD1       -0.7590   -7.2740   23.1350 C.3    95  LEU95       0.0001
     37  CD2        0.2010   -8.7850   21.3820 C.3    95  LEU95       0.0001
     38  N          1.5290   -5.1310   17.9790 N.am   96  ASN96      -0.1959
     39  CA         1.6250   -4.0020   17.0630 C.3    96  ASN96       0.1804
     40  C          0.6940   -4.2640   15.8870 C.2    96  ASN96       0.2463
     41  O          0.8470   -5.2740   15.2040 O.2    96  ASN96      -0.2730
     42  CB         3.0670   -3.8380   16.5770 C.3    96  ASN96       0.1195
     43  CG         3.2880   -2.5560   15.8190 C.2    96  ASN96       0.2630
     44  OD1        2.5420   -1.5850   16.0100 O.2    96  ASN96      -0.2716
     45  ND2        4.3410   -2.5180   14.9730 N.am   96  ASN96      -0.0877
     46  N         -0.2590   -3.3450   15.6410 N.am   97  PRO97      -0.2716
     47  CA        -1.2140   -3.6280   14.5700 C.3    97  PRO97       0.1536
     48  C         -0.5900   -3.9290   13.2060 C.2    97  PRO97       0.2598
     49  O          0.4140   -3.3410   12.8060 O.2    97  PRO97      -0.2715
     50  CB        -2.0650   -2.3600   14.5240 C.3    97  PRO97       0.0310
     51  CG        -1.9730   -1.7890   15.8980 C.3    97  PRO97       0.0237
     52  CD        -0.5630   -2.0740   16.3270 C.3    97  PRO97       0.0939
     53  N         -1.2110   -4.8550   12.4910 N.am   98  LYS98      -0.1978
     54  CA        -0.7190   -5.2700   11.1920 C.3    98  LYS98       0.1596
     55  C         -0.4600   -4.0830   10.2590 C.2    98  LYS98       0.2287
     56  O          0.5870   -4.0040    9.6240 O.2    98  LYS98      -0.2864
     57  CB        -1.7320   -6.2480   10.5590 C.3    98  LYS98       0.0298
     58  CG        -1.3950   -6.6750    9.1270 C.3    98  LYS98       0.0038
     59  CD        -2.3200   -7.7690    8.6250 C.3    98  LYS98       0.0206
     60  CE        -3.6640   -7.2650    8.1640 C.3    98  LYS98       0.1093
     61  NZ        -4.3960   -8.3680    7.4700 N.3    98  LYS98      -0.1314
     62  N          2.8590   -2.3100   10.8940 N.3   101  ARG101     -0.1245
     63  CA         4.0310   -3.0650   10.4760 C.3   101  ARG101      0.1563
     64  C          4.2790   -2.8490    8.9900 C.2   101  ARG101      0.2260
     65  O          5.4130   -2.6360    8.5560 O.2   101  ARG101     -0.2867
     66  CB         3.8350   -4.5580   10.7780 C.3   101  ARG101      0.0307
     67  CG         3.3730   -4.8590   12.1990 C.3   101  ARG101      0.0489
     68  CD         3.4860   -6.3360   12.5130 C.3   101  ARG101      0.2205
     69  NE         4.8860   -6.7070   12.7310 N.pl3 101  ARG101     -0.0865
     70  CZ         5.4690   -7.8170   12.2890 C.cat 101  ARG101      0.5346
     71  NH1        4.8180   -8.7020   11.5210 N.pl3 101  ARG101      0.1354
     72  NH2        6.7470   -8.0290   12.5920 N.pl3 101  ARG101      0.1354
     73  N         10.7090   -7.6120   17.8770 N.3   121  ILE121     -0.1245
     74  CA         9.9870   -7.2650   19.1080 C.3   121  ILE121      0.1561
     75  C         10.9480   -6.7940   20.2090 C.2   121  ILE121      0.2260
     76  O         11.9370   -7.4420   20.5410 O.2   121  ILE121     -0.2867
     77  CB         9.1170   -8.4600   19.6170 C.3   121  ILE121      0.0252
     78  CG1        7.9950   -8.7620   18.6180 C.3   121  ILE121      0.0019
     79  CG2        8.5400   -8.1480   20.9990 C.3   121  ILE121      0.0019
     80  CD1        7.2970  -10.0470   18.8440 C.3   121  ILE121      0.0001
     81  N          3.1550  -15.7390   21.3040 N.3   157  PRO157     -0.2102
     82  CA         2.2990  -14.5590   21.0930 C.3   157  PRO157      0.1504
     83  C          1.0050  -14.5120   21.8830 C.2   157  PRO157      0.2575
     84  O          0.5340  -13.4290   22.2250 O.2   157  PRO157     -0.2718
     85  CB         1.9880  -14.6000   19.5880 C.3   157  PRO157      0.0282
     86  CG         2.8960  -15.6180   19.0030 C.3   157  PRO157      0.0208
     87  CD         3.3320  -16.5440   20.0740 C.3   157  PRO157      0.0893
     88  N          0.4190  -15.6710   22.1700 N.am  158  HIS158     -0.1976
     89  CA        -0.8680  -15.7140   22.8200 C.3   158  HIS158      0.1656
     90  C         -0.7340  -15.4280   24.3050 C.2   158  HIS158      0.2291
     91  O         -1.7240  -15.1400   24.9440 O.2   158  HIS158     -0.2864
     92  CB        -1.5550  -17.0630   22.5590 C.3   158  HIS158      0.0771
     93  CG        -2.1370  -17.1720   21.1730 C.ar  158  HIS158      0.0820
     94  ND1       -3.4550  -16.8700   20.8940 N.ar  158  HIS158     -0.2267
     95  CD2       -1.5730  -17.5080   19.9880 C.ar  158  HIS158      0.1154
     96  CE1       -3.6760  -17.0240   19.5990 C.ar  158  HIS158      0.1986
     97  NE2       -2.5490  -17.4060   19.0260 N.ar  158  HIS158     -0.2212
     98  N          1.3600  -13.0230   25.6580 N.3   160  ILE160     -0.1231
     99  CA         1.8140  -11.6290   25.8770 C.3   160  ILE160      0.1692
    100  C          0.7680  -10.8470   26.6440 C.2   160  ILE160      0.2592
    101  O         -0.4250  -11.0090   26.4060 O.2   160  ILE160     -0.2718
    102  CB         2.1370  -10.9050   24.5470 C.3   160  ILE160      0.0266
    103  CG1        3.3430  -11.5830   23.8840 C.3   160  ILE160      0.0019
    104  CG2        2.4220   -9.3910   24.7670 C.3   160  ILE160      0.0020
    105  CD1        3.5830  -11.1500   22.4630 C.3   160  ILE160      0.0001
    106  N          1.2300  -10.0230   27.5990 N.am  161  MET161     -0.1965
    107  CA         0.3490   -9.1650   28.4070 C.3   161  MET161      0.1736
    108  C          0.8110   -7.7240   28.2210 C.2   161  MET161      0.2616
    109  O          1.9950   -7.4670   28.0330 O.2   161  MET161     -0.2715
    110  CB         0.3890   -9.5070   29.8850 C.3   161  MET161      0.0427
    111  CG        -0.0020  -10.9370   30.2290 C.3   161  MET161      0.0599
    112  SD        -1.7490  -11.2020   29.9570 S.3   161  MET161     -0.1393
    113  CE        -2.5330  -10.0850   31.0970 C.3   161  MET161      0.0692
    114  N         -0.1520   -6.8130   28.2260 N.am  162  ARG162     -0.1963
    115  CA         0.0860   -5.3890   28.0610 C.3   162  ARG162      0.1729
    116  C         -0.5700   -4.6340   29.1960 C.2   162  ARG162      0.2616
    117  O         -1.7290   -4.9150   29.5810 O.2   162  ARG162     -0.2715
    118  CB        -0.5150   -4.9070   26.7350 C.3   162  ARG162      0.0348
    119  CG        -0.4080   -3.3920   26.5080 C.3   162  ARG162      0.0492
    120  CD        -1.0930   -2.9850   25.2240 C.3   162  ARG162      0.2205
    121  NE        -1.0950   -1.5510   25.0080 N.pl3 162  ARG162     -0.0865
    122  CZ        -1.8710   -0.6970   25.6580 C.cat 162  ARG162      0.5346
    123  NH1       -2.6860   -1.1190   26.6110 N.pl3 162  ARG162      0.1354
    124  NH2       -1.8040    0.5950   25.3630 N.pl3 162  ARG162      0.1354
    125  N          0.1670   -3.6770   29.7480 N.am  163  LEU163     -0.1963
    126  CA        -0.3750   -2.7110   30.6950 C.3   163  LEU163      0.1728
    127  C         -0.1700   -1.3040   30.1570 C.2   163  LEU163      0.2616
    128  O          0.9190   -0.9410   29.7440 O.2   163  LEU163     -0.2715
    129  CB         0.3300   -2.7910   32.0410 C.3   163  LEU163      0.0311
    130  CG         0.0080   -4.0030   32.8680 C.3   163  LEU163      0.0022
    131  CD1        0.5320   -5.2790   32.2250 C.3   163  LEU163      0.0001
    132  CD2        0.6210   -3.7530   34.2370 C.3   163  LEU163      0.0001
    133  N         -1.2120   -0.4790   30.2130 N.am  164  ASP164     -0.1971
    134  CA        -1.0590    0.9070   29.8150 C.3   164  ASP164      0.1709
    135  C         -0.0500    1.6750   30.6980 C.2   164  ASP164      0.2293
    136  O          0.6060    2.6170   30.2360 O.2   164  ASP164     -0.2864
    137  CB        -2.4060    1.6190   29.8700 C.3   164  ASP164      0.1436
    138  CG        -3.1800    1.4760   28.6130 C.2   164  ASP164      0.3671
    139  OD1       -2.8230    2.1600   27.6210 O.co2 164  ASP164     -0.2456
    140  OD2       -4.1690    0.7130   28.6170 O.co2 164  ASP164     -0.2456
    141  N         -6.5590   -2.2660   36.5210 N.3   256  SER256     -0.1217
    142  CA        -5.6960   -3.3130   35.9900 C.3   256  SER256      0.1889
    143  C         -4.9440   -4.0440   37.0910 C.2   256  SER256      0.2288
    144  O         -4.7260   -3.5030   38.1840 O.2   256  SER256     -0.2866
    145  CB        -4.6830   -2.6910   35.0110 C.3   256  SER256      0.2089
    146  OG        -3.6680   -3.6130   34.6210 O.3   256  SER256     -0.2183
    147  N         -0.0990  -18.8390   31.0480 N.3   269  LYS269     -0.1245
    148  CA        -0.6440  -19.0340   29.7020 C.3   269  LYS269      0.1561
    149  C          0.2820  -19.8850   28.8320 C.2   269  LYS269      0.2260
    150  O         -0.0150  -20.1570   27.6530 O.2   269  LYS269     -0.2867
    151  CB        -0.9100  -17.6800   29.0280 C.3   269  LYS269      0.0271
    152  CG        -2.1220  -16.9950   29.6130 C.3   269  LYS269      0.0035
    153  CD        -2.4040  -15.6730   28.9410 C.3   269  LYS269      0.0206
    154  CE        -3.5290  -14.9370   29.6070 C.3   269  LYS269      0.1093
    155  NZ        -3.9800  -13.8380   28.7250 N.3   269  LYS269     -0.1314
    156  N          5.0020   -9.6650    7.3090 N.3   356  HIS356     -0.1241
    157  CA         4.2660  -10.7290    7.9970 C.3   356  HIS356      0.1621
    158  C          5.0070  -12.0480    7.8850 C.2   356  HIS356      0.2264
    159  O          5.0270  -12.8400    8.8310 O.2   356  HIS356     -0.2867
    160  CB         2.8670  -10.8970    7.4090 C.3   356  HIS356      0.0745
    161  CG         2.1990   -9.6040    7.0760 C.ar  356  HIS356      0.0817
    162  ND1        2.1800   -8.5350    7.9420 N.ar  356  HIS356     -0.2268
    163  CD2        1.5350   -9.2010    5.9690 C.ar  356  HIS356      0.1154
    164  CE1        1.5300   -7.5310    7.3860 C.ar  356  HIS356      0.1986
    165  NE2        1.1230   -7.9110    6.1900 N.ar  356  HIS356     -0.2212
    166  N          9.1940  -11.3560    9.5570 N.3   359  CYS359     -0.1221
    167  CA         9.4470  -10.7790   10.8850 C.3   359  CYS359      0.1808
    168  C          8.4610  -11.2730   11.9280 C.2   359  CYS359      0.2601
    169  O          7.3100  -10.8610   11.9370 O.2   359  CYS359     -0.2717
    170  CB         9.4120   -9.2560   10.7870 C.3   359  CYS359      0.0970
    171  SG        10.6490   -8.6020    9.6590 S.3   359  CYS359     -0.0800
    172  N          8.9140  -12.2070   12.7700 N.am  360  PHE360     -0.1976
    173  CA         8.1120  -12.7380   13.8790 C.3   360  PHE360      0.1639
    174  C          8.9740  -13.1610   15.0670 C.2   360  PHE360      0.2290
    175  O          8.4230  -13.3950   16.1490 O.2   360  PHE360     -0.2864
    176  CB         7.2270  -13.9170   13.4410 C.3   360  PHE360      0.0560
    177  CG         7.7590  -14.6740   12.2650 C.ar  360  PHE360     -0.0200
    178  CD1        8.8020  -15.5810   12.4060 C.ar  360  PHE360     -0.0042
    179  CD2        7.2070  -14.4830   11.0140 C.ar  360  PHE360     -0.0042
    180  CE1        9.2830  -16.2790   11.3070 C.ar  360  PHE360     -0.0003
    181  CE2        7.6740  -15.1700    9.9290 C.ar  360  PHE360     -0.0003
    182  CZ         8.7160  -16.0710   10.0650 C.ar  360  PHE360     -0.0000
@<TRIPOS>BOND
     1   163   165   ar
     2   163   161   ar
     3   165   164   ar
     4   161   160    1
     5   161   162   ar
     6   156   157    1
     7   164   162   ar
     8   160   157    1
     9    61    60    1
    10   158   157    1
    11   158   159    2
    12    60    59    1
    13    65    64    2
    14    59    58    1
    15    64    63    1
    16    58    57    1
    17   166   167    1
    18    56    55    2
    19   171   170    1
    20   181   182   ar
    21   181   179   ar
    22   182   180   ar
    23    55    54    1
    24    63    66    1
    25    63    62    1
    26    57    54    1
    27    66    67    1
    28   170   167    1
    29   167   168    1
    30   179   177   ar
    31    54    53    1
    32   180   178   ar
    33    71    70    1
    34   168   169    2
    35   168   172   am
    36    67    68    1
    37   177   178   ar
    38   177   176    1
    39    70    72    1
    40    70    69    2
    41    53    48   am
    42    68    69    1
    43   172   173    1
    44    49    48    2
    45    48    47    1
    46   176   173    1
    47   173   174    1
    48    50    47    1
    49    50    51    1
    50    47    46    1
    51    16    15   ar
    52    45    43   am
    53    17    15   ar
    54   174   175    2
    55    41    40    2
    56    15    14    1
    57    46    40   am
    58    46    52    1
    59    43    44    2
    60    43    42    1
    61    40    39    1
    62    51    52    1
    63    13    14    1
    64    13    10    1
    65    42    39    1
    66    39    38    1
    67     9    10    1
    68     7     5    1
    69    10    11    1
    70    73    74    1
    71    38    32   am
    72     3     4    2
    73     3     2    1
    74    78    80    1
    75    78    77    1
    76     2     5    1
    77     2     1    1
    78     5     6    1
    79    11    18   am
    80    11    12    2
    81    86    85    1
    82    86    87    1
    83    97    96   ar
    84    97    95   ar
    85    74    77    1
    86    74    75    1
    87    21    20    2
    88    18    19    1
    89    32    33    2
    90    32    31    1
    91     8     6    1
    92    85    82    1
    93    96    94   ar
    94    77    79    1
    95    95    93   ar
    96    87    81    1
    97    31    30    1
    98    31    34    1
    99    75    76    2
   100    26    25    2
   101    20    19    1
   102    20    23   am
   103    19    22    1
   104    25    30   am
   105    25    24    1
   106    94    93   ar
   107    82    81    1
   108    82    83    1
   109    34    35    1
   110    93    92    1
   111    24    23    1
   112    24    27    1
   113    37    35    1
   114    23    29    1
   115    83    88   am
   116    83    84    2
   117    35    36    1
   118    88    89    1
   119   105   103    1
   120    92    89    1
   121    29    28    1
   122    27    28    1
   123    89    90    1
   124   103   102    1
   125    90    91    2
   126   102   104    1
   127   102    99    1
   128   121   120    1
   129   121   122    2
   130   120   119    1
   131   124   122    1
   132   122   123    1
   133    98    99    1
   134    99   100    1
   135   101   100    2
   136   119   118    1
   137   100   106   am
   138   118   115    1
   139   106   107    1
   140   139   138   ar
   141   150   149    2
   142   109   108    2
   143   115   114    1
   144   115   116    1
   145   108   114   am
   146   108   107    1
   147   107   110    1
   148   138   140   ar
   149   138   137    1
   150   155   154    1
   151   149   148    1
   152   153   154    1
   153   153   152    1
   154   151   152    1
   155   151   148    1
   156   116   117    2
   157   116   125   am
   158   148   147    1
   159   128   127    2
   160   125   126    1
   161   134   137    1
   162   134   133    1
   163   134   135    1
   164   110   111    1
   165   112   111    1
   166   112   113    1
   167   127   133   am
   168   127   126    1
   169   136   135    2
   170   126   129    1
   171   129   130    1
   172   131   130    1
   173   130   132    1
   174   146   145    1
   175   145   142    1
   176   142   141    1
   177   142   143    1
   178   143   144    2
