@<TRIPOS>MOLECULE
tmp/2q0uA02.pdb
 161 156 0 0 0
SMALL
GASTEIGER

@<TRIPOS>ATOM
      1  N          3.0930    3.1940   20.4720 N.3    52  ILE52      -0.1245
      2  CA         2.4780    3.0840   19.1470 C.3    52  ILE52       0.1561
      3  C          2.7910    4.3400   18.3370 C.2    52  ILE52       0.2260
      4  O          2.6270    5.4510   18.8180 O.2    52  ILE52      -0.2867
      5  CB         0.9480    2.9660   19.2780 C.3    52  ILE52       0.0252
      6  CG1        0.5730    1.8150   20.2240 C.3    52  ILE52       0.0019
      7  CG2        0.2950    2.7990   17.9000 C.3    52  ILE52       0.0019
      8  CD1        1.1470    0.4880   19.8300 C.3    52  ILE52       0.0001
      9  N          9.0030   -3.0130   17.8760 N.3    84  GLU84      -0.1231
     10  CA         7.6190   -2.6180   18.0480 C.3    84  GLU84       0.1699
     11  C          7.0730   -3.0840   19.4000 C.2    84  GLU84       0.2592
     12  O          7.6460   -3.9690   20.0450 O.2    84  GLU84      -0.2718
     13  CB         6.7600   -3.1890   16.9210 C.3    84  GLU84       0.0402
     14  CG         6.5630   -4.6820   17.0160 C.3    84  GLU84       0.1161
     15  CD         5.8840   -5.2800   15.8030 C.2    84  GLU84       0.3649
     16  OE1        5.1280   -4.5470   15.1290 O.co2  84  GLU84      -0.2457
     17  OE2        6.1010   -6.4820   15.5530 O.co2  84  GLU84      -0.2457
     18  N          5.9620   -2.4790   19.8010 N.am   85  ALA85      -0.1966
     19  CA         5.2410   -2.8820   21.0060 C.3    85  ALA85       0.1713
     20  C          4.7100   -4.3040   20.8630 C.2    85  ALA85       0.2458
     21  O          4.4310   -4.7560   19.7590 O.2    85  ALA85      -0.2730
     22  CB         4.0990   -1.9250   21.3000 C.3    85  ALA85       0.0333
     23  N          4.6010   -5.0400   21.9780 N.am   86  PRO86      -0.2716
     24  CA         4.0780   -6.4030   21.9200 C.3    86  PRO86       0.1536
     25  C          2.6740   -6.5250   21.3360 C.2    86  PRO86       0.2598
     26  O          2.3390   -7.5790   20.8050 O.2    86  PRO86      -0.2715
     27  CB         4.0880   -6.8360   23.3900 C.3    86  PRO86       0.0310
     28  CG         5.1900   -6.0090   24.0030 C.3    86  PRO86       0.0237
     29  CD         5.0310   -4.6740   23.3410 C.3    86  PRO86       0.0939
     30  N          1.8680   -5.4800   21.4690 N.am   87  LEU87      -0.1964
     31  CA         0.5910   -5.3660   20.7530 C.3    87  LEU87       0.1728
     32  C          0.6640   -4.0950   19.9140 C.2    87  LEU87       0.2616
     33  O          0.7430   -2.9950   20.4550 O.2    87  LEU87      -0.2715
     34  CB        -0.5920   -5.2940   21.7220 C.3    87  LEU87       0.0311
     35  CG        -0.7330   -6.4580   22.7140 C.3    87  LEU87       0.0022
     36  CD1       -1.7930   -6.1460   23.7670 C.3    87  LEU87       0.0001
     37  CD2       -1.0460   -7.7730   22.0030 C.3    87  LEU87       0.0001
     38  N          0.6060   -4.2580   18.5880 N.am   88  ASN88      -0.1959
     39  CA         0.7900   -3.1500   17.6460 C.3    88  ASN88       0.1804
     40  C         -0.1910   -3.3530   16.4950 C.2    88  ASN88       0.2463
     41  O         -0.1590   -4.4010   15.8610 O.2    88  ASN88      -0.2730
     42  CB         2.2340   -3.1520   17.1300 C.3    88  ASN88       0.1195
     43  CG         2.5750   -1.9280   16.2820 C.2    88  ASN88       0.2630
     44  OD1        1.9690   -0.8640   16.4230 O.2    88  ASN88      -0.2716
     45  ND2        3.5580   -2.0890   15.3870 N.am   88  ASN88      -0.0877
     46  N         -1.0680   -2.3680   16.2400 N.am   89  PRO89      -0.2716
     47  CA        -2.0790   -2.5630   15.1990 C.3    89  PRO89       0.1536
     48  C         -1.4840   -2.9710   13.8540 C.2    89  PRO89       0.2598
     49  O         -0.4130   -2.4900   13.4680 O.2    89  PRO89      -0.2715
     50  CB        -2.7370   -1.1890   15.1080 C.3    89  PRO89       0.0310
     51  CG        -2.5800   -0.6220   16.4600 C.3    89  PRO89       0.0237
     52  CD        -1.2190   -1.0520   16.8870 C.3    89  PRO89       0.0939
     53  N         -2.1980   -3.8430   13.1430 N.am   90  LYS90      -0.1978
     54  CA        -1.7450   -4.3730   11.8630 C.3    90  LYS90       0.1596
     55  C         -1.3660   -3.2710   10.8780 C.2    90  LYS90       0.2287
     56  O         -0.3080   -3.3410   10.2560 O.2    90  LYS90      -0.2864
     57  CB        -2.8330   -5.2640   11.2540 C.3    90  LYS90       0.0298
     58  CG        -2.3970   -6.0060   10.0550 C.3    90  LYS90       0.0038
     59  CD        -2.9340   -7.4170   10.2340 C.3    90  LYS90       0.0206
     60  CE        -2.6680   -8.1140   11.5800 C.3    90  LYS90       0.1093
     61  NZ        -1.2810   -8.0630   12.0200 N.3    90  LYS90      -0.1314
     62  N          2.0880   -1.8360   11.4620 N.3    93  ARG93      -0.1245
     63  CA         3.1680   -2.7290   11.0330 C.3    93  ARG93       0.1563
     64  C          3.4290   -2.5770    9.5370 C.2    93  ARG93       0.2260
     65  O          4.5790   -2.5930    9.0850 O.2    93  ARG93      -0.2867
     66  CB         2.8470   -4.1970   11.3480 C.3    93  ARG93       0.0307
     67  CG         2.3480   -4.4540   12.7540 C.3    93  ARG93       0.0489
     68  CD         2.3510   -5.9370   13.0670 C.3    93  ARG93       0.2205
     69  NE         3.6980   -6.4440   13.3140 N.pl3  93  ARG93      -0.0865
     70  CZ         4.1740   -7.6180   12.9130 C.cat  93  ARG93       0.5346
     71  NH1        3.4420   -8.4520   12.1690 N.pl3  93  ARG93       0.1354
     72  NH2        5.4220   -7.9460   13.2170 N.pl3  93  ARG93       0.1354
     73  N          9.4450   -7.6970   18.4630 N.3   113  ILE113     -0.1245
     74  CA         8.7700   -7.1980   19.6500 C.3   113  ILE113      0.1561
     75  C          9.8100   -6.8110   20.7150 C.2   113  ILE113      0.2260
     76  O         10.7230   -7.5770   21.0310 O.2   113  ILE113     -0.2867
     77  CB         7.8100   -8.2530   20.2100 C.3   113  ILE113      0.0252
     78  CG1        6.6270   -8.4450   19.2630 C.3   113  ILE113      0.0019
     79  CG2        7.3420   -7.8580   21.5950 C.3   113  ILE113      0.0019
     80  CD1        5.8660   -9.7300   19.5250 C.3   113  ILE113      0.0001
     81  N          1.1640  -14.5480   22.0430 N.3   149  PRO149     -0.2102
     82  CA         0.3520  -13.3380   21.8990 C.3   149  PRO149      0.1504
     83  C         -0.9120  -13.3120   22.7380 C.2   149  PRO149      0.2575
     84  O         -1.3230  -12.2500   23.1930 O.2   149  PRO149     -0.2718
     85  CB        -0.0140  -13.3310   20.4070 C.3   149  PRO149      0.0282
     86  CG         0.1430  -14.7260   19.9720 C.3   149  PRO149      0.0208
     87  CD         1.3000  -15.2520   20.7560 C.3   149  PRO149      0.0893
     88  N         -1.5330  -14.4680   22.9560 N.am  150  HIS150     -0.1976
     89  CA        -2.7950  -14.4800   23.6770 C.3   150  HIS150      0.1656
     90  C         -2.6480  -14.1890   25.1630 C.2   150  HIS150      0.2291
     91  O         -3.6180  -13.8300   25.8150 O.2   150  HIS150     -0.2864
     92  CB        -3.5370  -15.7980   23.4580 C.3   150  HIS150      0.0771
     93  CG        -4.0520  -15.9530   22.0640 C.ar  150  HIS150      0.0820
     94  ND1       -5.2590  -15.4280   21.6590 N.ar  150  HIS150     -0.2267
     95  CD2       -3.5050  -16.5330   20.9710 C.ar  150  HIS150      0.1154
     96  CE1       -5.4410  -15.6950   20.3770 C.ar  150  HIS150      0.1986
     97  NE2       -4.3910  -16.3590   19.9340 N.ar  150  HIS150     -0.2212
     98  N         -0.3120  -11.9190   26.4680 N.3   152  ILE152     -0.1231
     99  CA         0.2700  -10.5900   26.7170 C.3   152  ILE152      0.1692
    100  C         -0.6880   -9.7210   27.5210 C.2   152  ILE152      0.2592
    101  O         -1.8970   -9.7250   27.2810 O.2   152  ILE152     -0.2718
    102  CB         0.6300   -9.9050   25.3790 C.3   152  ILE152      0.0266
    103  CG1        1.7810  -10.6440   24.7020 C.3   152  ILE152      0.0019
    104  CG2        1.0070   -8.4300   25.5900 C.3   152  ILE152      0.0020
    105  CD1        2.0170  -10.2300   23.2660 C.3   152  ILE152      0.0001
    106  N         -0.1420   -8.9990   28.5010 N.am  153  MET153     -0.1965
    107  CA        -0.8830   -7.9650   29.2170 C.3   153  MET153      0.1736
    108  C         -0.2800   -6.5960   28.9830 C.2   153  MET153      0.2616
    109  O          0.9290   -6.4700   28.7570 O.2   153  MET153     -0.2715
    110  CB        -0.8630   -8.2450   30.7110 C.3   153  MET153      0.0427
    111  CG        -1.5300   -9.5360   31.0870 C.3   153  MET153      0.0599
    112  SD        -3.3440   -9.5440   30.8040 S.3   153  MET153     -0.1393
    113  CE        -3.9150   -8.5150   32.1150 C.3   153  MET153      0.0692
    114  N         -1.1390   -5.5800   29.0580 N.am  154  ARG154     -0.1963
    115  CA        -0.7560   -4.1920   28.8050 C.3   154  ARG154      0.1729
    116  C         -1.3070   -3.3030   29.9090 C.2   154  ARG154      0.2616
    117  O         -2.4430   -3.4890   30.3370 O.2   154  ARG154     -0.2715
    118  CB        -1.3390   -3.7170   27.4780 C.3   154  ARG154      0.0348
    119  CG        -0.9920   -2.2860   27.1040 C.3   154  ARG154      0.0492
    120  CD        -1.7380   -1.8820   25.8460 C.3   154  ARG154      0.2205
    121  NE        -1.6050   -0.4630   25.5530 N.pl3 154  ARG154     -0.0865
    122  CZ        -2.2470    0.5010   26.1970 C.cat 154  ARG154      0.5346
    123  NH1       -3.0860    0.2100   27.1910 N.pl3 154  ARG154      0.1354
    124  NH2       -2.0410    1.7650   25.8550 N.pl3 154  ARG154      0.1354
    125  N         -0.4790   -2.3700   30.3860 N.am  155  LEU155     -0.1963
    126  CA        -0.9180   -1.2530   31.2210 C.3   155  LEU155      0.1728
    127  C         -0.5500    0.0530   30.5580 C.2   155  LEU155      0.2616
    128  O          0.5880    0.2090   30.1220 O.2   155  LEU155     -0.2715
    129  CB        -0.2290   -1.2570   32.5790 C.3   155  LEU155      0.0311
    130  CG        -0.3210   -2.4810   33.4690 C.3   155  LEU155      0.0022
    131  CD1        0.7050   -3.5110   33.0400 C.3   155  LEU155      0.0001
    132  CD2       -0.1140   -2.0770   34.9410 C.3   155  LEU155      0.0001
    133  N         -1.4710    1.0090   30.5110 N.am  156  ASP156     -0.1971
    134  CA        -1.1370    2.3620   30.0380 C.3   156  ASP156      0.1709
    135  C         -0.0110    3.0020   30.8690 C.2   156  ASP156      0.2293
    136  O          0.8210    3.7520   30.3540 O.2   156  ASP156     -0.2864
    137  CB        -2.3640    3.2910   30.1090 C.3   156  ASP156      0.1436
    138  CG        -3.1940    3.2720   28.8490 C.2   156  ASP156      0.3671
    139  OD1       -2.8200    3.9640   27.8820 O.co2 156  ASP156     -0.2456
    140  OD2       -4.2430    2.5970   28.8450 O.co2 156  ASP156     -0.2456
    141  N         -6.5380   -0.5700   36.4060 N.3   248  SER248     -0.1217
    142  CA        -5.7500   -1.7550   36.0830 C.3   248  SER248      0.1889
    143  C         -5.2150   -2.4880   37.3100 C.2   248  SER248      0.2288
    144  O         -4.9050   -1.8770   38.3180 O.2   248  SER248     -0.2866
    145  CB        -4.5480   -1.3700   35.2230 C.3   248  SER248      0.2089
    146  OG        -3.7330   -2.4990   34.9060 O.3   248  SER248     -0.2183
    147  N         -2.4390  -17.5500   31.9190 N.3   261  LYS261     -0.1245
    148  CA        -3.0080  -17.7860   30.5970 C.3   261  LYS261      0.1561
    149  C         -2.1450  -18.7080   29.7610 C.2   261  LYS261      0.2260
    150  O         -2.5140  -19.0260   28.6330 O.2   261  LYS261     -0.2867
    151  CB        -3.2120  -16.4700   29.8530 C.3   261  LYS261      0.0271
    152  CG        -4.2380  -15.5870   30.5050 C.3   261  LYS261      0.0035
    153  CD        -4.4210  -14.3200   29.7360 C.3   261  LYS261      0.0206
    154  CE        -5.2070  -13.3010   30.5370 C.3   261  LYS261      0.1093
    155  NZ        -5.6070  -12.1360   29.6850 N.3   261  LYS261     -0.1314
    156  N          7.2730  -11.5290   10.0660 N.3   351  CYS351     -0.1235
    157  CA         7.6210  -11.0350   11.3970 C.3   351  CYS351      0.1677
    158  C          6.5530  -11.4180   12.4200 C.2   351  CYS351      0.2270
    159  O          5.5390  -10.7410   12.5660 O.2   351  CYS351     -0.2867
    160  CB         7.8220   -9.5160   11.3640 C.3   351  CYS351      0.0956
    161  SG         9.1490   -8.9740   10.2610 S.3   351  CYS351     -0.0801
@<TRIPOS>BOND
     1    65    64    2
     2    64    63    1
     3    58    59    1
     4    58    57    1
     5   156   157    1
     6    59    60    1
     7    56    55    2
     8   161   160    1
     9    55    54    1
    10    63    66    1
    11    63    62    1
    12    57    54    1
    13    66    67    1
    14   160   157    1
    15   157   158    1
    16    60    61    1
    17    54    53    1
    18    71    70    1
    19   158   159    2
    20    67    68    1
    21    70    72    1
    22    70    69    2
    23    68    69    1
    24    53    48   am
    25    49    48    2
    26    48    47    1
    27    50    47    1
    28    50    51    1
    29    16    15   ar
    30    47    46    1
    31    45    43   am
    32    17    15   ar
    33    15    14    1
    34    41    40    2
    35    46    40   am
    36    46    52    1
    37    43    44    2
    38    43    42    1
    39    51    52    1
    40    40    39    1
    41    13    14    1
    42    13    10    1
    43    42    39    1
    44    39    38    1
    45     9    10    1
    46     7     5    1
    47    10    11    1
    48     3     4    2
    49     3     2    1
    50    73    74    1
    51    38    32   am
    52     2     5    1
    53     2     1    1
    54    78    80    1
    55    78    77    1
    56     5     6    1
    57    11    18   am
    58    11    12    2
    59    74    77    1
    60    74    75    1
    61    21    20    2
    62    18    19    1
    63     8     6    1
    64    32    33    2
    65    32    31    1
    66    97    96   ar
    67    97    95   ar
    68    86    85    1
    69    86    87    1
    70    77    79    1
    71    96    94   ar
    72    85    82    1
    73    75    76    2
    74    31    30    1
    75    31    34    1
    76    87    81    1
    77    26    25    2
    78    20    19    1
    79    20    23   am
    80    95    93   ar
    81    19    22    1
    82    25    30   am
    83    25    24    1
    84    94    93   ar
    85    34    35    1
    86    82    81    1
    87    82    83    1
    88    24    23    1
    89    24    27    1
    90    23    29    1
    91    37    35    1
    92    93    92    1
    93    35    36    1
    94    83    88   am
    95    83    84    2
    96    88    89    1
    97   105   103    1
    98    29    28    1
    99    27    28    1
   100    92    89    1
   101    89    90    1
   102   103   102    1
   103    90    91    2
   104   102   104    1
   105   102    99    1
   106   121   120    1
   107   121   122    2
   108   120   119    1
   109   124   122    1
   110   122   123    1
   111    98    99    1
   112    99   100    1
   113   119   118    1
   114   101   100    2
   115   118   115    1
   116   100   106   am
   117   139   138   ar
   118   106   107    1
   119   150   149    2
   120   109   108    2
   121   115   114    1
   122   115   116    1
   123   140   138   ar
   124   138   137    1
   125   108   114   am
   126   108   107    1
   127   107   110    1
   128   155   154    1
   129   153   152    1
   130   153   154    1
   131   149   148    1
   132   151   152    1
   133   151   148    1
   134   116   117    2
   135   116   125   am
   136   134   137    1
   137   134   133    1
   138   134   135    1
   139   128   127    2
   140   136   135    2
   141   125   126    1
   142   133   127   am
   143   127   126    1
   144   148   147    1
   145   110   111    1
   146   112   111    1
   147   112   113    1
   148   126   129    1
   149   129   130    1
   150   131   130    1
   151   130   132    1
   152   146   145    1
   153   145   142    1
   154   142   141    1
   155   142   143    1
   156   143   144    2
