@<TRIPOS>MOLECULE
tmp/2q11B00.pdb
 208 202 0 0 0
SMALL
GASTEIGER

@<TRIPOS>ATOM
      1  N        224.3690  -44.5000   -0.0930 N.3    15  GLN15      -0.1231
      2  CA       224.7910  -43.2880    0.5920 C.3    15  GLN15       0.1698
      3  C        223.5940  -42.3340    0.7280 C.2    15  GLN15       0.2592
      4  O        223.7350  -41.2240    1.2440 O.2    15  GLN15      -0.2718
      5  CB       225.9130  -42.6050   -0.1940 C.3    15  GLN15       0.0381
      6  CG       227.0900  -43.5160   -0.5140 C.3    15  GLN15       0.0905
      7  CD       228.2650  -42.7700   -1.1290 C.2    15  GLN15       0.2608
      8  OE1      228.1150  -42.0750   -2.1340 O.2    15  GLN15      -0.2717
      9  NE2      229.4420  -42.9160   -0.5280 N.am   15  GLN15      -0.0878
     10  N        222.4270  -42.7650    0.2460 N.am   16  GLY16      -0.1957
     11  CA       221.2210  -41.9530    0.3520 C.3    16  GLY16       0.1869
     12  C        220.9380  -40.8870   -0.7010 C.2    16  GLY16       0.2309
     13  O        221.8600  -40.3290   -1.3100 O.2    16  GLY16      -0.2863
     14  N        220.1580  -34.5260    2.5880 N.3    33  LEU33      -0.1245
     15  CA       219.6320  -35.8760    2.5010 C.3    33  LEU33       0.1561
     16  C        218.1510  -35.9750    2.8990 C.2    33  LEU33       0.2260
     17  O        217.7440  -35.5020    3.9680 O.2    33  LEU33      -0.2867
     18  CB       220.4430  -36.8060    3.3990 C.3    33  LEU33       0.0270
     19  CG       219.9030  -38.2320    3.3360 C.3    33  LEU33       0.0019
     20  CD1      220.6120  -38.9260    2.2040 C.3    33  LEU33       0.0001
     21  CD2      220.1120  -38.9730    4.6340 C.3    33  LEU33       0.0001
     22  N        215.2910  -37.8080    4.4270 N.3    35  ASP35      -0.1239
     23  CA       215.1300  -38.9110    5.3640 C.3    35  ASP35       0.1674
     24  C        213.8070  -39.0170    6.1370 C.2    35  ASP35       0.2266
     25  O        213.5540  -38.2510    7.0680 O.2    35  ASP35      -0.2867
     26  CB       216.3060  -38.8800    6.3430 C.3    35  ASP35       0.1410
     27  CG       216.1690  -39.8930    7.4540 C.2    35  ASP35       0.3668
     28  OD1      215.6630  -41.0000    7.2050 O.co2  35  ASP35      -0.2456
     29  OD2      216.5800  -39.5880    8.5850 O.co2  35  ASP35      -0.2456
     30  N        213.1370  -41.1980    8.0970 N.3    37  GLY37      -0.1210
     31  CA       213.4620  -41.9710    9.2850 C.3    37  GLY37       0.1956
     32  C        213.8710  -41.1130   10.4770 C.2    37  GLY37       0.2612
     33  O        214.0800  -41.6330   11.5780 O.2    37  GLY37      -0.2717
     34  N        213.9860  -39.8020   10.2640 N.am   38  SER38      -0.1952
     35  CA       214.3500  -38.8670   11.3310 C.3    38  SER38       0.1924
     36  C        213.5050  -37.5940   11.2420 C.2    38  SER38       0.2314
     37  O        212.8690  -37.3450   10.2190 O.2    38  SER38      -0.2863
     38  CB       215.8330  -38.5000   11.2400 C.3    38  SER38       0.2116
     39  OG       216.0750  -37.6030   10.1750 O.3    38  SER38      -0.2180
     40  N        223.0330  -35.5540   19.5430 N.3    72  VAL72      -0.1231
     41  CA       222.4180  -36.7750   19.0780 C.3    72  VAL72       0.1678
     42  C        223.3820  -37.9210   18.8210 C.2    72  VAL72       0.2434
     43  O        224.2600  -37.8430   17.9520 O.2    72  VAL72      -0.2733
     44  CB       221.5860  -36.5280   17.8040 C.3    72  VAL72       0.0265
     45  CG1      220.9690  -37.8300   17.3300 C.3    72  VAL72       0.0020
     46  CG2      220.5020  -35.5080   18.0870 C.3    72  VAL72       0.0020
     47  N        223.2530  -38.9880   19.6220 N.am   73  PRO73      -0.2718
     48  CA       224.0720  -40.1880   19.5200 C.3    73  PRO73       0.1535
     49  C        223.1440  -41.2320   18.9320 C.2    73  PRO73       0.2599
     50  O        221.9510  -41.2330   19.2220 O.2    73  PRO73      -0.2715
     51  CB       224.3990  -40.4900   20.9670 C.3    73  PRO73       0.0310
     52  CG       223.0830  -40.2260   21.6120 C.3    73  PRO73       0.0237
     53  CD       222.6280  -38.9230   20.9570 C.3    73  PRO73       0.0939
     54  N        223.6720  -42.1070   18.0950 N.am   74  TYR74      -0.1960
     55  CA       222.8410  -43.1400   17.5130 C.3    74  TYR74       0.1771
     56  C        223.4430  -44.4550   17.9620 C.2    74  TYR74       0.2620
     57  O        222.8660  -45.1780   18.7790 O.2    74  TYR74      -0.2715
     58  CB       222.8450  -43.0340   15.9870 C.3    74  TYR74       0.0574
     59  CG       221.8880  -43.9780   15.3120 C.ar   74  TYR74      -0.0198
     60  CD1      220.5730  -44.0940   15.7510 C.ar   74  TYR74      -0.0009
     61  CD2      222.2950  -44.7620   14.2360 C.ar   74  TYR74      -0.0009
     62  CE1      219.6860  -44.9740   15.1390 C.ar   74  TYR74       0.0417
     63  CE2      221.4140  -45.6470   13.6140 C.ar   74  TYR74       0.0417
     64  CZ       220.1140  -45.7510   14.0720 C.ar   74  TYR74       0.1957
     65  OH       219.2440  -46.6400   13.4830 O.3    74  TYR74      -0.2866
     66  N        224.6180  -44.7480   17.4290 N.am   75  THR75      -0.1937
     67  CA       225.3300  -45.9620   17.7740 C.3    75  THR75       0.2028
     68  C        226.7550  -45.7670   17.3040 C.2    75  THR75       0.2642
     69  O        226.9880  -45.3300   16.1740 O.2    75  THR75      -0.2714
     70  CB       224.7550  -47.2140   17.0600 C.3    75  THR75       0.1808
     71  OG1      223.3550  -47.3440   17.3350 O.3    75  THR75      -0.2208
     72  CG2      225.4570  -48.4580   17.5610 C.3    75  THR75       0.0379
     73  N        227.7040  -46.0630   18.1830 N.am   76  GLN76      -0.1963
     74  CA       229.1200  -45.9470   17.8580 C.3    76  GLN76       0.1733
     75  C        229.4810  -44.6750   17.0950 C.2    76  GLN76       0.2617
     76  O        230.5280  -44.6050   16.4520 O.2    76  GLN76      -0.2715
     77  CB       229.5480  -47.1770   17.0570 C.3    76  GLN76       0.0408
     78  CG       228.7130  -47.4140   15.7970 C.3    76  GLN76       0.0908
     79  CD       229.0600  -46.4310   14.6900 C.2    76  GLN76       0.2608
     80  OE1      230.2530  -46.2080   14.3960 O.2    76  GLN76      -0.2717
     81  NE2      228.0330  -45.8490   14.0540 N.am   76  GLN76      -0.0878
     82  N        228.6140  -43.6730   17.1790 N.am   77  GLY77      -0.1940
     83  CA       228.8570  -42.4130   16.4990 C.3    77  GLY77       0.2014
     84  C        227.9480  -41.3400   17.0570 C.2    77  GLY77       0.2639
     85  O        227.0990  -41.6360   17.8990 O.2    77  GLY77      -0.2714
     86  N        228.1070  -40.1000   16.6010 N.am   78  LYS78      -0.1963
     87  CA       227.2620  -39.0150   17.1030 C.3    78  LYS78       0.1728
     88  C        227.5780  -37.6510   16.5110 C.2    78  LYS78       0.2616
     89  O        228.6670  -37.4350   15.9820 O.2    78  LYS78      -0.2715
     90  CB       227.4000  -38.9200   18.6240 C.3    78  LYS78       0.0311
     91  CG       228.7750  -38.4500   19.1020 C.3    78  LYS78       0.0038
     92  CD       229.0400  -36.9700   18.7740 C.3    78  LYS78       0.0206
     93  CE       230.2760  -36.4260   19.4930 C.3    78  LYS78       0.1093
     94  NZ       230.6570  -35.0580   19.0270 N.3    78  LYS78      -0.1314
     95  N        226.6170  -36.7330   16.6180 N.am   79  TRP79      -0.1974
     96  CA       226.8090  -35.3560   16.1580 C.3    79  TRP79       0.1640
     97  C        226.3400  -34.3910   17.2380 C.2    79  TRP79       0.2290
     98  O        225.3590  -34.6530   17.9340 O.2    79  TRP79      -0.2864
     99  CB       226.0720  -35.0510   14.8290 C.3    79  TRP79       0.0576
    100  CG       224.5590  -35.2210   14.7980 C.ar   79  TRP79       0.0006
    101  CD1      223.8700  -36.3380   14.4220 C.ar   79  TRP79       0.0946
    102  CD2      223.5660  -34.2260   15.0960 C.ar   79  TRP79       0.0152
    103  NE1      222.5170  -36.1010   14.4600 N.ar   79  TRP79      -0.2442
    104  CE2      222.3020  -34.8140   14.8710 C.ar   79  TRP79       0.0810
    105  CE3      223.6210  -32.8950   15.5300 C.ar   79  TRP79       0.0012
    106  CZ2      221.1020  -34.1180   15.0650 C.ar   79  TRP79       0.0191
    107  CZ3      222.4170  -32.1990   15.7250 C.ar   79  TRP79       0.0001
    108  CH2      221.1800  -32.8150   15.4910 C.ar   79  TRP79       0.0015
    109  N        231.3640  -40.4750   12.7650 N.3   110  LYS110     -0.1231
    110  CA       230.7160  -41.5100   11.9820 C.3   110  LYS110      0.1693
    111  C        229.2770  -41.1280   11.6360 C.2   110  LYS110      0.2592
    112  O        228.3400  -41.8950   11.8660 O.2   110  LYS110     -0.2718
    113  CB       230.7650  -42.8270   12.7600 C.3   110  LYS110      0.0285
    114  CG       232.1610  -43.1220   13.3160 C.3   110  LYS110      0.0035
    115  CD       232.2520  -44.4860   13.9850 C.3   110  LYS110      0.0206
    116  CE       233.6200  -44.7040   14.6150 C.3   110  LYS110      0.1093
    117  NZ       234.7220  -44.5380   13.6270 N.3   110  LYS110     -0.1314
    118  N        229.1180  -39.9290   11.0810 N.am  111  PHE111     -0.1976
    119  CA       227.8070  -39.4290   10.6870 C.3   111  PHE111      0.1639
    120  C        227.8080  -39.0940    9.1950 C.2   111  PHE111      0.2290
    121  O        227.0000  -39.6230    8.4260 O.2   111  PHE111     -0.2864
    122  CB       227.4410  -38.1790   11.4910 C.3   111  PHE111      0.0560
    123  CG       226.1290  -37.5780   11.0960 C.ar  111  PHE111     -0.0200
    124  CD1      224.9390  -38.2160   11.4190 C.ar  111  PHE111     -0.0042
    125  CD2      226.0870  -36.3980   10.3590 C.ar  111  PHE111     -0.0042
    126  CE1      223.7220  -37.6900   11.0110 C.ar  111  PHE111     -0.0003
    127  CE2      224.8810  -35.8640    9.9460 C.ar  111  PHE111     -0.0003
    128  CZ       223.6930  -36.5120   10.2720 C.ar  111  PHE111     -0.0000
    129  N        229.0990  -39.2780    5.4470 N.3   113  ILE113     -0.1245
    130  CA       229.6550  -40.3990    4.7080 C.3   113  ILE113      0.1561
    131  C        230.6120  -39.9430    3.6060 C.2   113  ILE113      0.2260
    132  O        230.2970  -39.0600    2.8060 O.2   113  ILE113     -0.2867
    133  CB       228.5110  -41.2640    4.1300 C.3   113  ILE113      0.0252
    134  CG1      227.7110  -41.8580    5.2960 C.3   113  ILE113      0.0019
    135  CG2      229.0650  -42.3640    3.2360 C.3   113  ILE113      0.0019
    136  CD1      226.4220  -42.5390    4.8990 C.3   113  ILE113      0.0001
    137  N        226.4080  -35.2030    0.2900 N.3   118  TRP118     -0.1241
    138  CA       225.4290  -34.4340    1.0460 C.3   118  TRP118      0.1605
    139  C        226.0040  -33.8710    2.3400 C.2   118  TRP118      0.2264
    140  O        226.6370  -34.5790    3.1210 O.2   118  TRP118     -0.2867
    141  CB       224.1510  -35.2300    1.3270 C.3   118  TRP118      0.0550
    142  CG       224.2700  -36.5280    2.0400 C.ar  118  TRP118      0.0003
    143  CD1      224.1020  -37.7590    1.4980 C.ar  118  TRP118      0.0946
    144  CD2      224.4230  -36.7320    3.4520 C.ar  118  TRP118      0.0152
    145  NE1      224.1250  -38.7210    2.4750 N.ar  118  TRP118     -0.2442
    146  CE2      224.3240  -38.1190    3.6860 C.ar  118  TRP118      0.0810
    147  CE3      224.6300  -35.8760    4.5420 C.ar  118  TRP118      0.0012
    148  CZ2      224.4230  -38.6760    4.9610 C.ar  118  TRP118      0.0191
    149  CZ3      224.7280  -36.4300    5.8100 C.ar  118  TRP118      0.0001
    150  CH2      224.6240  -37.8180    6.0080 C.ar  118  TRP118      0.0015
    151  N        220.9970  -33.1080    6.5850 N.3   121  ILE121     -0.1245
    152  CA       219.8750  -34.0270    6.6260 C.3   121  ILE121      0.1561
    153  C        218.5470  -33.3090    6.9090 C.2   121  ILE121      0.2260
    154  O        218.4660  -32.4330    7.7770 O.2   121  ILE121     -0.2867
    155  CB       220.1280  -35.1080    7.6980 C.3   121  ILE121      0.0252
    156  CG1      218.9810  -36.1040    7.7340 C.3   121  ILE121      0.0019
    157  CG2      220.3010  -34.4470    9.0780 C.3   121  ILE121      0.0019
    158  CD1      219.1340  -37.1180    8.8520 C.3   121  ILE121      0.0001
    159  N        207.2850  -42.1280   13.6950 N.3   201  TYR201     -0.1241
    160  CA       208.0500  -42.6210   12.5510 C.3   201  TYR201      0.1605
    161  C        206.8840  -42.8530   11.6000 C.2   201  TYR201      0.2264
    162  O        205.7330  -42.8140   12.0390 O.2   201  TYR201     -0.2867
    163  CB       208.6920  -43.9850   12.8380 C.3   201  TYR201      0.0534
    164  CG       210.0560  -43.9360   13.4540 C.ar  201  TYR201     -0.0201
    165  CD1      211.1440  -43.4680   12.7310 C.ar  201  TYR201     -0.0009
    166  CD2      210.2590  -44.3440   14.7750 C.ar  201  TYR201     -0.0009
    167  CE1      212.4160  -43.4030   13.3090 C.ar  201  TYR201      0.0417
    168  CE2      211.5140  -44.2840   15.3640 C.ar  201  TYR201      0.0417
    169  CZ       212.5910  -43.8130   14.6310 C.ar  201  TYR201      0.1957
    170  OH       213.8370  -43.7450   15.2190 O.3   201  TYR201     -0.2866
    171  N        208.4040  -49.6090    9.7660 N.3   229  ILE229     -0.1245
    172  CA       208.4260  -48.2390    9.2540 C.3   229  ILE229      0.1561
    173  C        208.9400  -48.1420    7.8270 C.2   229  ILE229      0.2260
    174  O        209.5980  -49.0470    7.3290 O.2   229  ILE229     -0.2867
    175  CB       209.3170  -47.3310   10.1260 C.3   229  ILE229      0.0252
    176  CG1      210.7680  -47.7900   10.0240 C.3   229  ILE229      0.0019
    177  CG2      208.8650  -47.3970   11.5740 C.3   229  ILE229      0.0019
    178  CD1      211.7450  -46.8720   10.6940 C.3   229  ILE229      0.0001
    179  N        211.3830  -46.0650    5.5480 N.3   231  ASP231     -0.1239
    180  CA       212.5000  -45.1320    5.6880 C.3   231  ASP231      0.1674
    181  C        213.4190  -44.9260    4.4850 C.2   231  ASP231      0.2266
    182  O        214.1910  -45.8090    4.1340 O.2   231  ASP231     -0.2867
    183  CB       213.3310  -45.5480    6.8970 C.3   231  ASP231      0.1410
    184  CG       214.5650  -44.7130    7.0600 C.2   231  ASP231      0.3668
    185  OD1      214.5770  -43.5680    6.5580 O.co2 231  ASP231     -0.2456
    186  OD2      215.5160  -45.1990    7.6970 O.co2 231  ASP231     -0.2456
    187  N        215.9010  -43.3730    4.4420 N.3   233  GLY233     -0.1210
    188  CA       217.2280  -43.1590    4.9750 C.3   233  GLY233      0.1956
    189  C        217.9450  -44.4870    5.1200 C.2   233  GLY233      0.2612
    190  O        219.1670  -44.5310    5.2820 O.2   233  GLY233     -0.2717
    191  N        217.1750  -45.5700    5.0580 N.am  234  THR234     -0.1952
    192  CA       217.7040  -46.9240    5.1700 C.3   234  THR234      0.1897
    193  C        217.7210  -47.5860    3.7980 C.2   234  THR234      0.2313
    194  O        216.6840  -47.7120    3.1500 O.2   234  THR234     -0.2863
    195  CB       216.8290  -47.7760    6.0980 C.3   234  THR234      0.1794
    196  OG1      216.9570  -47.2960    7.4350 O.3   234  THR234     -0.2208
    197  CG2      217.2400  -49.2340    6.0480 C.3   234  THR234      0.0378
    198  N        215.3500  -54.1090    6.0710 N.3   238  ARG238     -0.1245
    199  CA       215.5920  -54.7470    7.3560 C.3   238  ARG238      0.1563
    200  C        214.3500  -55.4200    7.9400 C.2   238  ARG238      0.2260
    201  O        213.2340  -54.9170    7.8100 O.2   238  ARG238     -0.2867
    202  CB       216.1840  -53.7160    8.3220 C.3   238  ARG238      0.0307
    203  CG       217.0720  -52.6970    7.5990 C.3   238  ARG238      0.0489
    204  CD       218.1580  -52.1420    8.4870 C.3   238  ARG238      0.2205
    205  NE       217.6220  -51.7040    9.7670 N.pl3 238  ARG238     -0.0865
    206  CZ       218.0490  -52.1590   10.9370 C.cat 238  ARG238      0.5346
    207  NH1      217.5070  -51.7130   12.0670 N.pl3 238  ARG238      0.1354
    208  NH2      219.0220  -53.0610   10.9710 N.pl3 238  ARG238      0.1354
@<TRIPOS>BOND
     1     8     7    2
     2    13    12    2
     3     7     9   am
     4     7     6    1
     5    12    11    1
     6     6     5    1
     7     5     2    1
     8     1     2    1
     9    10    11    1
    10    10     3   am
    11   137   138    1
    12     2     3    1
    13     3     4    2
    14   138   141    1
    15   138   139    1
    16   141   142    1
    17   143   142   ar
    18   143   145   ar
    19   142   144   ar
    20    20    19    1
    21   139   140    2
    22   145   146   ar
    23    15    14    1
    24    15    16    1
    25    15    18    1
    26   132   131    2
    27    16    17    2
    28   194   193    2
    29   135   133    1
    30    19    18    1
    31    19    21    1
    32   144   146   ar
    33   144   147   ar
    34   131   130    1
    35   146   148   ar
    36   193   192    1
    37   133   130    1
    38   133   134    1
    39   182   181    2
    40    22    23    1
    41   187   188    1
    42   181   180    1
    43   147   149   ar
    44   130   129    1
    45   136   134    1
    46   148   150   ar
    47   188   189    1
    48   191   189   am
    49   191   192    1
    50   189   190    2
    51   192   195    1
    52    23    24    1
    53    23    26    1
    54   179   180    1
    55   180   183    1
    56   149   150   ar
    57   197   195    1
    58   198   199    1
    59   195   196    1
    60    24    25    2
    61    26    27    1
    62   185   184   ar
    63   151   152    1
    64   152   153    1
    65   152   155    1
    66   183   184    1
    67   153   154    2
    68   184   186   ar
    69    28    27   ar
    70   174   173    2
    71   199   200    1
    72   199   202    1
    73    27    29   ar
    74   203   202    1
    75   203   204    1
    76   155   156    1
    77   155   157    1
    78   156   158    1
    79   201   200    2
    80   173   172    1
    81    30    31    1
    82   121   120    2
    83   204   205    1
    84   120   119    1
    85   172   171    1
    86   172   175    1
    87    31    32    1
    88   205   206    2
    89   127   128   ar
    90   127   125   ar
    91   176   175    1
    92   176   178    1
    93   175   177    1
    94    39    38    1
    95    37    36    2
    96    34    32   am
    97    34    35    1
    98   128   126   ar
    99   125   123   ar
   100    32    33    2
   101   119   118    1
   102   119   122    1
   103   206   208    1
   104   206   207    1
   105   126   124   ar
   106   118   111   am
   107   123   124   ar
   108   123   122    1
   109    38    35    1
   110    36    35    1
   111   161   162    2
   112   161   160    1
   113   111   112    2
   114   111   110    1
   115   110   113    1
   116   110   109    1
   117   160   163    1
   118   160   159    1
   119   165   167   ar
   120   165   164   ar
   121   113   114    1
   122   163   164    1
   123   167   169   ar
   124   114   115    1
   125   164   166   ar
   126    65    64    1
   127    63    64   ar
   128    63    61   ar
   129   117   116    1
   130   115   116    1
   131    81    79   am
   132    64    62   ar
   133    61    59   ar
   134    80    79    2
   135   101   103   ar
   136   101   100   ar
   137   103   104   ar
   138   169   170    1
   139   169   168   ar
   140    79    78    1
   141   166   168   ar
   142   100    99    1
   143   100   102   ar
   144    99    96    1
   145   104   106   ar
   146   104   102   ar
   147   106   108   ar
   148   102   105   ar
   149    62    60   ar
   150    59    60   ar
   151    59    58    1
   152   108   107   ar
   153   105   107   ar
   154    78    77    1
   155    89    88    2
   156    58    55    1
   157    96    95    1
   158    96    97    1
   159    69    68    2
   160    76    75    2
   161    83    84    1
   162    83    82    1
   163    88    95   am
   164    88    87    1
   165    86    84   am
   166    86    87    1
   167    84    85    2
   168    77    74    1
   169    70    71    1
   170    70    72    1
   171    70    67    1
   172    75    82   am
   173    75    74    1
   174    87    90    1
   175    97    98    2
   176    68    67    1
   177    68    73   am
   178    45    44    1
   179    66    67    1
   180    66    56   am
   181    55    56    1
   182    55    54    1
   183    44    46    1
   184    44    41    1
   185    74    73    1
   186    43    42    2
   187    56    57    2
   188    54    49   am
   189    90    91    1
   190    92    91    1
   191    92    93    1
   192    42    41    1
   193    42    47   am
   194    49    50    2
   195    49    48    1
   196    94    93    1
   197    41    40    1
   198    48    47    1
   199    48    51    1
   200    47    53    1
   201    53    52    1
   202    51    52    1
