@<TRIPOS>MOLECULE
tmp/2q14C00.pdb
 83 79 0 0 0
SMALL
GASTEIGER

@<TRIPOS>ATOM
      1  N        -49.2720   -8.4580  -73.5740 N.3    44  SER44      -0.1202
      2  CA       -48.3280   -9.3320  -74.2880 C.3    44  SER44       0.2020
      3  C        -48.6240   -9.3220  -75.7810 C.2    44  SER44       0.2619
      4  O        -47.7320   -9.4650  -76.5910 O.2    44  SER44      -0.2717
      5  CB       -48.3300  -10.7560  -73.7130 C.3    44  SER44       0.2103
      6  OG       -49.5330  -11.4470  -74.0130 O.3    44  SER44      -0.2182
      7  N        -49.8760   -9.0590  -76.1190 N.am   45  VAL45      -0.1965
      8  CA       -50.3080   -8.9220  -77.5140 C.3    45  VAL45       0.1727
      9  C        -49.5710   -7.7980  -78.2800 C.2    45  VAL45       0.2616
     10  O        -49.3540   -7.9040  -79.4940 O.2    45  VAL45      -0.2715
     11  CB       -51.8770   -8.7510  -77.5510 C.3    45  VAL45       0.0290
     12  CG1      -52.2820   -7.3530  -77.1240 C.3    45  VAL45       0.0023
     13  CG2      -52.4100   -9.0830  -78.8970 C.3    45  VAL45       0.0023
     14  N        -49.1690   -6.7390  -77.5540 N.am   46  VAL46      -0.1977
     15  CA       -48.3540   -5.6240  -78.0910 C.3    46  VAL46       0.1596
     16  C        -46.8510   -5.7500  -77.7390 C.2    46  VAL46       0.2287
     17  O        -45.9610   -5.3640  -78.5220 O.2    46  VAL46      -0.2864
     18  CB       -48.8520   -4.2440  -77.5080 C.3    46  VAL46       0.0276
     19  CG1      -47.8890   -3.0740  -77.9080 C.3    46  VAL46       0.0022
     20  CG2      -50.2720   -3.9580  -77.9210 C.3    46  VAL46       0.0022
     21  N        -44.5420   -8.6330  -76.6140 N.3    48  PRO48      -0.2116
     22  CA       -44.3440  -10.0720  -76.3830 C.3    48  PRO48       0.1372
     23  C        -43.4350  -10.4130  -75.1990 C.2    48  PRO48       0.2244
     24  O        -43.4650  -11.5520  -74.7480 O.2    48  PRO48      -0.2868
     25  CB       -43.6630  -10.5670  -77.6750 C.3    48  PRO48       0.0268
     26  CG       -43.7920   -9.4640  -78.6780 C.3    48  PRO48       0.0207
     27  CD       -44.1030   -8.1920  -77.9530 C.3    48  PRO48       0.0892
     28  N        -52.8090    1.1680  -73.9170 N.3   215  HIS215     -0.1226
     29  CA       -52.5220    0.9750  -75.3300 C.3   215  HIS215      0.1752
     30  C        -53.7760    0.4930  -76.0530 C.2   215  HIS215      0.2596
     31  O        -54.4480   -0.4490  -75.5950 O.2   215  HIS215     -0.2718
     32  CB       -51.4560   -0.0570  -75.5250 C.3   215  HIS215      0.0759
     33  CG       -50.8470   -0.0120  -76.8800 C.ar  215  HIS215      0.0818
     34  ND1      -51.5610   -0.3010  -78.0190 N.ar  215  HIS215     -0.2268
     35  CD2      -49.5970    0.3080  -77.2840 C.ar  215  HIS215      0.1154
     36  CE1      -50.7690   -0.1890  -79.0700 C.ar  215  HIS215      0.1986
     37  NE2      -49.5700    0.1780  -78.6490 N.ar  215  HIS215     -0.2212
     38  N        -54.0790    1.1070  -77.1900 N.am  216  LYS216     -0.1966
     39  CA       -55.3670    0.8420  -77.8360 C.3   216  LYS216      0.1728
     40  C        -55.5120   -0.6140  -78.3200 C.2   216  LYS216      0.2616
     41  O        -56.6080   -1.2020  -78.2050 O.2   216  LYS216     -0.2715
     42  CB       -55.7010    1.8850  -78.9320 C.3   216  LYS216      0.0311
     43  CG       -54.7500    2.0310  -80.0800 C.3   216  LYS216      0.0038
     44  CD       -55.2100    3.2610  -80.9100 C.3   216  LYS216      0.0206
     45  CE       -54.3730    3.5030  -82.2160 C.3   216  LYS216      0.1093
     46  NZ       -54.3740    2.3600  -83.2250 N.3   216  LYS216     -0.1314
     47  N        -54.4200   -1.2150  -78.8060 N.am  217  THR217     -0.1951
     48  CA       -54.4570   -2.6460  -79.1450 C.3   217  THR217      0.1897
     49  C        -54.8520   -3.4590  -77.9090 C.2   217  THR217      0.2313
     50  O        -55.6800   -4.3650  -77.9810 O.2   217  THR217     -0.2863
     51  CB       -53.1280   -3.1010  -79.6830 C.3   217  THR217      0.1794
     52  OG1      -52.7930   -2.2700  -80.7950 O.3   217  THR217     -0.2208
     53  CG2      -53.1850   -4.5640  -80.1060 C.3   217  THR217      0.0378
     54  N        -54.4720  -14.0050  -82.6470 N.3   302  ARG302     -0.1245
     55  CA       -54.1340  -12.5930  -82.6100 C.3   302  ARG302      0.1563
     56  C        -54.5970  -11.8830  -83.8740 C.2   302  ARG302      0.2260
     57  O        -53.8060  -11.2040  -84.5480 O.2   302  ARG302     -0.2867
     58  CB       -52.6300  -12.3880  -82.3840 C.3   302  ARG302      0.0307
     59  CG       -52.2200  -10.9560  -81.9860 C.3   302  ARG302      0.0489
     60  CD       -50.8370  -10.6150  -82.5180 C.3   302  ARG302      0.2205
     61  NE       -50.3780   -9.2810  -82.1300 N.pl3 302  ARG302     -0.0865
     62  CZ       -50.7490   -8.1440  -82.7230 C.cat 302  ARG302      0.5346
     63  NH1      -51.5930   -8.1570  -83.7430 N.pl3 302  ARG302      0.1354
     64  NH2      -50.2710   -6.9820  -82.2880 N.pl3 302  ARG302      0.1354
     65  N        -56.8230   -9.1440  -84.0640 N.3   304  ILE304     -0.1245
     66  CA       -57.4400   -8.2410  -83.0990 C.3   304  ILE304      0.1561
     67  C        -58.3680   -7.2830  -83.8020 C.2   304  ILE304      0.2260
     68  O        -58.0680   -6.8400  -84.9290 O.2   304  ILE304     -0.2867
     69  CB       -56.3990   -7.4050  -82.2860 C.3   304  ILE304      0.0252
     70  CG1      -55.3060   -8.3050  -81.6990 C.3   304  ILE304      0.0019
     71  CG2      -57.1140   -6.6710  -81.1200 C.3   304  ILE304      0.0019
     72  CD1      -55.9010   -9.5410  -81.0610 C.3   304  ILE304      0.0001
     73  N        -62.5290   -6.9130  -87.8530 N.3   393  ARG393     -0.1245
     74  CA       -61.9440   -6.3140  -89.0640 C.3   393  ARG393      0.1563
     75  C        -62.2620   -7.1130  -90.3270 C.2   393  ARG393      0.2260
     76  O        -63.2920   -7.7890  -90.3940 O.2   393  ARG393     -0.2867
     77  CB       -60.4310   -6.0770  -88.9090 C.3   393  ARG393      0.0307
     78  CG       -59.6470   -7.2230  -88.3020 C.3   393  ARG393      0.0489
     79  CD       -58.1440   -7.1270  -88.5950 C.3   393  ARG393      0.2205
     80  NE       -57.4470   -6.1490  -87.7480 N.pl3 393  ARG393     -0.0865
     81  CZ       -57.1260   -4.9040  -88.1090 C.cat 393  ARG393      0.5346
     82  NH1      -57.4190   -4.4370  -89.3240 N.pl3 393  ARG393      0.1354
     83  NH2      -56.4880   -4.1200  -87.2390 N.pl3 393  ARG393      0.1354
@<TRIPOS>BOND
     1    76    75    2
     2    75    74    1
     3    82    81    1
     4    74    77    1
     5    74    73    1
     6    77    78    1
     7    79    78    1
     8    79    80    1
     9    81    80    2
    10    81    83    1
    11    68    67    2
    12    57    56    2
    13    65    66    1
    14    56    55    1
    15    67    66    1
    16    63    62    1
    17    46    45    1
    18    66    69    1
    19    62    64    1
    20    62    61    2
    21    54    55    1
    22    55    58    1
    23    60    61    1
    24    60    59    1
    25    58    59    1
    26    69    70    1
    27    69    71    1
    28    45    44    1
    29    70    72    1
    30    44    43    1
    31    52    51    1
    32    53    51    1
    33    43    42    1
    34    51    48    1
    35    10     9    2
    36    48    47    1
    37    48    49    1
    38    36    37   ar
    39    36    34   ar
    40    42    39    1
    41    13    11    1
    42    47    40   am
    43    26    27    1
    44    26    25    1
    45    37    35   ar
    46    17    16    2
    47    40    41    2
    48    40    39    1
    49     9    14   am
    50     9     8    1
    51    15    16    1
    52    15    14    1
    53    15    18    1
    54    34    33   ar
    55    50    49    2
    56    27    21    1
    57    20    18    1
    58    19    18    1
    59    39    38    1
    60    25    22    1
    61    11     8    1
    62    11    12    1
    63     8     7    1
    64    35    33   ar
    65    38    30   am
    66    33    32    1
    67    21    22    1
    68     4     3    2
    69    22    23    1
    70     7     3   am
    71    30    31    2
    72    30    29    1
    73     3     2    1
    74    32    29    1
    75    29    28    1
    76    23    24    2
    77     2     5    1
    78     2     1    1
    79     6     5    1
