@<TRIPOS>MOLECULE
tmp/2q14C01.pdb
 90 86 0 0 0
SMALL
GASTEIGER

@<TRIPOS>ATOM
      1  N        -34.0990  -18.2510  -47.6750 N.3     5  LYS5       -0.1231
      2  CA       -34.2210  -18.6920  -49.0260 C.3     5  LYS5        0.1693
      3  C        -33.9240  -17.5120  -49.9590 C.2     5  LYS5        0.2592
      4  O        -34.2760  -16.3720  -49.6730 O.2     5  LYS5       -0.2718
      5  CB       -35.6270  -19.2570  -49.2180 C.3     5  LYS5        0.0285
      6  CG       -35.8950  -20.4650  -48.3160 C.3     5  LYS5        0.0035
      7  CD       -34.8020  -21.5300  -48.4910 C.3     5  LYS5        0.0206
      8  CE       -34.7210  -22.5080  -47.3220 C.3     5  LYS5        0.1093
      9  NZ       -35.9570  -23.3200  -47.1690 N.3     5  LYS5       -0.1314
     10  N        -33.2280  -17.7910  -51.0470 N.am    6  ILE6       -0.1966
     11  CA       -32.8330  -16.7620  -51.9970 C.3     6  ILE6        0.1727
     12  C        -33.4720  -17.0950  -53.3300 C.2     6  ILE6        0.2616
     13  O        -33.2850  -18.1880  -53.8480 O.2     6  ILE6       -0.2715
     14  CB       -31.2840  -16.6970  -52.1520 C.3     6  ILE6        0.0290
     15  CG1      -30.6500  -16.1560  -50.8640 C.3     6  ILE6        0.0022
     16  CG2      -30.9010  -15.8140  -53.3350 C.3     6  ILE6        0.0023
     17  CD1      -29.4480  -16.9520  -50.3810 C.3     6  ILE6        0.0001
     18  N        -34.2230  -16.1530  -53.8770 N.am    7  ILE7       -0.1963
     19  CA       -34.7910  -16.3120  -55.2040 C.3     7  ILE7        0.1727
     20  C        -34.2080  -15.2750  -56.1370 C.2     7  ILE7        0.2616
     21  O        -34.1090  -14.1120  -55.7900 O.2     7  ILE7       -0.2715
     22  CB       -36.3350  -16.1950  -55.2100 C.3     7  ILE7        0.0290
     23  CG1      -36.9810  -17.2670  -54.3110 C.3     7  ILE7        0.0022
     24  CG2      -36.8500  -16.3700  -56.6120 C.3     7  ILE7        0.0023
     25  CD1      -38.4890  -17.3150  -54.4040 C.3     7  ILE7        0.0001
     26  N        -33.8450  -15.7110  -57.3330 N.am    8  ASN8       -0.1972
     27  CA       -33.3460  -14.8070  -58.3640 C.3     8  ASN8        0.1688
     28  C        -34.4510  -14.0120  -59.0120 C.2     8  ASN8        0.2292
     29  O        -35.5040  -14.5440  -59.3400 O.2     8  ASN8       -0.2864
     30  CB       -32.5520  -15.5540  -59.4480 C.3     8  ASN8        0.1181
     31  CG       -31.1160  -15.8690  -59.0180 C.2     8  ASN8        0.2629
     32  OD1      -30.8620  -16.8160  -58.2810 O.2     8  ASN8       -0.2716
     33  ND2      -30.1800  -15.0700  -59.4870 N.am    8  ASN8       -0.0877
     34  N        -41.4920  -17.1250  -45.6220 N.3    23  TYR23      -0.1241
     35  CA       -41.3340  -18.1910  -46.6140 C.3    23  TYR23       0.1605
     36  C        -42.5700  -19.0630  -46.7250 C.2    23  TYR23       0.2264
     37  O        -42.8890  -19.5360  -47.8100 O.2    23  TYR23      -0.2867
     38  CB       -40.1030  -19.0670  -46.3630 C.3    23  TYR23       0.0534
     39  CG       -39.7850  -19.9690  -47.5430 C.ar   23  TYR23      -0.0201
     40  CD1      -39.6380  -19.4340  -48.8270 C.ar   23  TYR23      -0.0009
     41  CD2      -39.6480  -21.3530  -47.3810 C.ar   23  TYR23      -0.0009
     42  CE1      -39.3600  -20.2500  -49.9240 C.ar   23  TYR23       0.0417
     43  CE2      -39.3690  -22.1840  -48.4720 C.ar   23  TYR23       0.0417
     44  CZ       -39.2230  -21.6230  -49.7390 C.ar   23  TYR23       0.1957
     45  OH       -38.9430  -22.4040  -50.8280 O.3    23  TYR23      -0.2866
     46  N        -44.8770  -17.3860  -49.1120 N.3    26  VAL26      -0.1231
     47  CA       -44.3830  -17.5460  -50.4930 C.3    26  VAL26       0.1692
     48  C        -44.6630  -18.9490  -51.0540 C.2    26  VAL26       0.2591
     49  O        -44.9480  -19.1040  -52.2530 O.2    26  VAL26      -0.2718
     50  CB       -42.8550  -17.2380  -50.5710 C.3    26  VAL26       0.0266
     51  CG1      -42.2530  -17.6530  -51.9380 C.3    26  VAL26       0.0020
     52  CG2      -42.6020  -15.7740  -50.2440 C.3    26  VAL26       0.0020
     53  N        -44.5810  -19.9660  -50.1940 N.am   27  ARG27      -0.1980
     54  CA       -44.7340  -21.3620  -50.6490 C.3    27  ARG27       0.1597
     55  C        -46.1870  -21.8610  -50.5630 C.2    27  ARG27       0.2287
     56  O        -46.5270  -22.9590  -51.0320 O.2    27  ARG27      -0.2864
     57  CB       -43.7310  -22.2980  -49.9420 C.3    27  ARG27       0.0334
     58  CG       -43.9390  -22.4980  -48.4490 C.3    27  ARG27       0.0492
     59  CD       -42.9720  -23.5770  -47.8390 C.3    27  ARG27       0.2205
     60  NE       -43.2990  -23.8710  -46.4400 N.pl3  27  ARG27      -0.0865
     61  CZ       -44.3490  -24.5960  -46.0440 C.cat  27  ARG27       0.5346
     62  NH1      -45.1880  -25.1320  -46.9370 N.pl3  27  ARG27       0.1354
     63  NH2      -44.5670  -24.7890  -44.7410 N.pl3  27  ARG27       0.1354
     64  N        -48.5850  -19.4000  -54.8190 N.3    32  GLN32      -0.1245
     65  CA       -48.0250  -20.1410  -55.9390 C.3    32  GLN32       0.1566
     66  C        -48.9010  -20.1000  -57.1610 C.2    32  GLN32       0.2260
     67  O        -48.4170  -20.2360  -58.2880 O.2    32  GLN32      -0.2867
     68  CB       -47.7800  -21.6040  -55.5430 C.3    32  GLN32       0.0367
     69  CG       -46.6730  -21.7620  -54.5540 C.3    32  GLN32       0.0905
     70  CD       -45.3140  -21.3270  -55.1060 C.2    32  GLN32       0.2608
     71  OE1      -44.5040  -20.7430  -54.3780 O.2    32  GLN32      -0.2717
     72  NE2      -45.0650  -21.6030  -56.3920 N.am   32  GLN32      -0.0878
     73  N        -48.1250  -17.6290  -59.9010 N.3    35  THR35      -0.1218
     74  CA       -47.1970  -18.0100  -60.9520 C.3    35  THR35       0.1862
     75  C        -47.8930  -18.3250  -62.2590 C.2    35  THR35       0.2287
     76  O        -47.2190  -18.4580  -63.2880 O.2    35  THR35      -0.2866
     77  CB       -46.3520  -19.2620  -60.6140 C.3    35  THR35       0.1770
     78  OG1      -47.1940  -20.4230  -60.5140 O.3    35  THR35      -0.2211
     79  CG2      -45.5420  -19.0490  -59.3410 C.3    35  THR35       0.0375
     80  N        -46.8480  -13.3830  -59.3000 N.3    55  PHE55      -0.1241
     81  CA       -45.9400  -13.9090  -58.2910 C.3    55  PHE55       0.1605
     82  C        -44.6560  -13.0640  -58.2180 C.2    55  PHE55       0.2264
     83  O        -44.1960  -12.6690  -57.1110 O.2    55  PHE55      -0.2867
     84  CB       -45.6100  -15.3740  -58.5940 C.3    55  PHE55       0.0534
     85  CG       -44.6870  -16.0200  -57.5830 C.ar   55  PHE55      -0.0203
     86  CD1      -45.1850  -16.5020  -56.3890 C.ar   55  PHE55      -0.0042
     87  CD2      -43.3230  -16.1680  -57.8580 C.ar   55  PHE55      -0.0042
     88  CE1      -44.3450  -17.1000  -55.4630 C.ar   55  PHE55      -0.0003
     89  CE2      -42.4880  -16.7570  -56.9490 C.ar   55  PHE55      -0.0003
     90  CZ       -43.0030  -17.2280  -55.7420 C.ar   55  PHE55      -0.0000
@<TRIPOS>BOND
     1    76    75    2
     2    75    74    1
     3    74    77    1
     4    74    73    1
     5    77    78    1
     6    77    79    1
     7    33    31   am
     8    30    31    1
     9    30    27    1
    10    29    28    2
    11    80    81    1
    12    31    32    2
    13    28    27    1
    14    84    81    1
    15    84    85    1
    16    27    26    1
    17    81    82    1
    18    67    66    2
    19    82    83    2
    20    87    85   ar
    21    87    89   ar
    22    85    86   ar
    23    26    20   am
    24    66    65    1
    25    89    90   ar
    26    24    22    1
    27    72    70   am
    28    86    88   ar
    29    20    21    2
    30    20    19    1
    31    65    68    1
    32    65    64    1
    33    90    88   ar
    34    68    69    1
    35    22    19    1
    36    22    23    1
    37    19    18    1
    38    70    69    1
    39    70    71    2
    40    25    23    1
    41    18    12   am
    42    13    12    2
    43    16    14    1
    44    12    11    1
    45    49    48    2
    46    14    11    1
    47    14    15    1
    48    11    10    1
    49    51    50    1
    50    48    47    1
    51    48    53   am
    52    10     3   am
    53    56    55    2
    54    15    17    1
    55    45    44    1
    56    54    55    1
    57    54    53    1
    58    54    57    1
    59    50    47    1
    60    50    52    1
    61    47    46    1
    62     3     4    2
    63     3     2    1
    64    57    58    1
    65    42    44   ar
    66    42    40   ar
    67    44    43   ar
    68     5     2    1
    69     5     6    1
    70     2     1    1
    71    40    39   ar
    72     7     6    1
    73     7     8    1
    74    43    41   ar
    75    58    59    1
    76    59    60    1
    77    37    36    2
    78    39    41   ar
    79    39    38    1
    80     8     9    1
    81    62    61    1
    82    36    35    1
    83    35    38    1
    84    35    34    1
    85    60    61    2
    86    61    63    1
