@<TRIPOS>MOLECULE
tmp/2q15A00.pdb
 210 199 0 0 0
SMALL
GASTEIGER

@<TRIPOS>ATOM
      1  N         74.0490   55.6530    1.6840 N.3    30  LEU30      -0.1245
      2  CA        73.3610   54.4300    1.3530 C.3    30  LEU30       0.1561
      3  C         71.8860   54.7090    1.1020 C.2    30  LEU30       0.2260
      4  O         71.2620   55.3750    1.9010 O.2    30  LEU30      -0.2867
      5  CB        73.5130   53.4780    2.5120 C.3    30  LEU30       0.0270
      6  CG        73.1880   52.0030    2.4060 C.3    30  LEU30       0.0019
      7  CD1       73.9210   51.2940    3.5040 C.3    30  LEU30       0.0001
      8  CD2       71.7350   51.7910    2.6240 C.3    30  LEU30       0.0001
      9  N         68.2120   53.5320    1.2010 N.3    32  ASP32      -0.1239
     10  CA        67.5570   52.5810    2.0960 C.3    32  ASP32       0.1674
     11  C         66.0800   52.7580    2.0730 C.2    32  ASP32       0.2266
     12  O         65.5730   53.6800    2.7230 O.2    32  ASP32      -0.2867
     13  CB        68.0460   52.8390    3.5510 C.3    32  ASP32       0.1410
     14  CG        67.4490   51.8510    4.5880 C.2    32  ASP32       0.3668
     15  OD1       67.2850   50.6510    4.2630 O.co2  32  ASP32      -0.2456
     16  OD2       67.1860   52.1610    5.7700 O.co2  32  ASP32      -0.2456
     17  N         63.9670   50.8170    3.5750 N.3    34  GLY34      -0.1210
     18  CA        63.4530   50.2710    4.7960 C.3    34  GLY34       0.1956
     19  C         63.5170   51.2040    5.9790 C.2    34  GLY34       0.2612
     20  O         63.2160   50.7900    7.0940 O.2    34  GLY34      -0.2717
     21  N         63.8520   52.4700    5.7660 N.am   35  SER35      -0.1952
     22  CA        63.9320   53.4360    6.8930 C.3    35  SER35       0.1924
     23  C         63.6570   54.8240    6.4450 C.2    35  SER35       0.2314
     24  O         63.5410   55.0770    5.2470 O.2    35  SER35      -0.2863
     25  CB        65.2840   53.3820    7.5880 C.3    35  SER35       0.2116
     26  OG        66.2540   54.0090    6.7750 O.3    35  SER35      -0.2180
     27  N         68.7980   55.7410   18.0330 N.3    69  VAL69      -0.1245
     28  CA        68.2150   54.6700   17.2320 C.3    69  VAL69       0.1561
     29  C         68.9330   53.3670   17.5550 C.2    69  VAL69       0.2260
     30  O         69.9610   53.0340   16.9360 O.2    69  VAL69      -0.2867
     31  CB        68.3380   54.9440   15.6720 C.3    69  VAL69       0.0252
     32  CG1       67.8270   53.7800   14.8480 C.3    69  VAL69       0.0019
     33  CG2       67.6850   56.2180   15.3190 C.3    69  VAL69       0.0019
     34  N         69.3160   49.4490   17.2170 N.3    71  TYR71      -0.1227
     35  CA        68.8710   48.2490   16.4990 C.3    71  TYR71       0.1736
     36  C         69.5210   47.0250   17.1840 C.2    71  TYR71       0.2596
     37  O         69.6050   46.9590   18.4110 O.2    71  TYR71      -0.2718
     38  CB        69.0800   48.3740   14.9470 C.3    71  TYR71       0.0548
     39  CG        68.3480   47.3340   14.0690 C.ar   71  TYR71      -0.0200
     40  CD1       66.9680   47.3360   13.9450 C.ar   71  TYR71      -0.0009
     41  CD2       69.0630   46.3610   13.3700 C.ar   71  TYR71      -0.0009
     42  CE1       66.3150   46.3810   13.1670 C.ar   71  TYR71       0.0417
     43  CE2       68.4470   45.4350   12.6010 C.ar   71  TYR71       0.0417
     44  CZ        67.0730   45.4500   12.4990 C.ar   71  TYR71       0.1957
     45  OH        66.4650   44.4970   11.7310 O.3    71  TYR71      -0.2866
     46  N         69.9480   46.0340   16.4330 N.am   72  THR72      -0.1953
     47  CA        70.0790   44.6840   16.9910 C.3    72  THR72       0.1897
     48  C         71.4610   44.5840   17.6280 C.2    72  THR72       0.2313
     49  O         72.4590   44.3440   16.9340 O.2    72  THR72      -0.2863
     50  CB        69.8330   43.6340   15.8620 C.3    72  THR72       0.1794
     51  OG1       68.4290   43.3360   15.7590 O.3    72  THR72      -0.2208
     52  CG2       70.4630   42.2850   16.1820 C.3    72  THR72       0.0378
     53  N         73.3490   46.8570   18.0710 N.3    74  GLY74      -0.1210
     54  CA        74.0260   48.0870   17.6790 C.3    74  GLY74       0.1956
     55  C         73.1550   49.3240   17.8810 C.2    74  GLY74       0.2612
     56  O         72.0060   49.1800   18.2750 O.2    74  GLY74      -0.2717
     57  N         73.7140   50.5160   17.6410 N.am   75  LYS75      -0.1965
     58  CA        72.9640   51.7650   17.6650 C.3    75  LYS75       0.1728
     59  C         73.6240   52.8520   16.8040 C.2    75  LYS75       0.2616
     60  O         74.7800   52.7400   16.4060 O.2    75  LYS75      -0.2715
     61  CB        72.8700   52.2620   19.0810 C.3    75  LYS75       0.0311
     62  CG        74.1300   52.7090   19.6700 C.3    75  LYS75       0.0038
     63  CD        73.9410   53.0660   21.1570 C.3    75  LYS75       0.0206
     64  CE        75.0480   53.6850   21.9140 C.3    75  LYS75       0.1093
     65  NZ        76.3300   53.0610   21.8030 N.3    75  LYS75      -0.1314
     66  N         72.8620   53.8790   16.4870 N.am   76  TRP76      -0.1974
     67  CA        73.4120   55.1780   16.1990 C.3    76  TRP76       0.1640
     68  C         72.7200   56.2950   16.9890 C.2    76  TRP76       0.2290
     69  O         71.6060   56.1700   17.5010 O.2    76  TRP76      -0.2864
     70  CB        73.5020   55.5240   14.6820 C.3    76  TRP76       0.0576
     71  CG        72.2490   55.7290   13.9910 C.ar   76  TRP76       0.0006
     72  CD1       71.5590   54.7900   13.2450 C.ar   76  TRP76       0.0946
     73  CD2       71.5390   56.9460   13.8490 C.ar   76  TRP76       0.0152
     74  NE1       70.4240   55.3550   12.7320 N.ar   76  TRP76      -0.2442
     75  CE2       70.4000   56.6840   13.0700 C.ar   76  TRP76       0.0810
     76  CE3       71.7160   58.2290   14.3330 C.ar   76  TRP76       0.0012
     77  CZ2       69.4730   57.6570   12.7690 C.ar   76  TRP76       0.0191
     78  CZ3       70.7820   59.1830   14.0350 C.ar   76  TRP76       0.0001
     79  CH2       69.6780   58.8920   13.2470 C.ar   76  TRP76       0.0015
     80  N         77.3860   52.1350   17.1440 N.3   106  ASP106     -0.1225
     81  CA        77.9830   50.8140   17.3040 C.3   106  ASP106      0.1805
     82  C         77.3360   49.8990   16.2570 C.2   106  ASP106      0.2598
     83  O         76.1000   49.8790   16.0890 O.2   106  ASP106     -0.2718
     84  CB        77.7860   50.3160   18.7400 C.3   106  ASP106      0.1424
     85  CG        78.7420   49.1410   19.1080 C.2   106  ASP106      0.3668
     86  OD1       80.0070   49.3240   18.9900 O.co2 106  ASP106     -0.2456
     87  OD2       78.3050   47.9960   19.5040 O.co2 106  ASP106     -0.2456
     88  N         78.1700   49.1640   15.5380 N.am  107  LYS107     -0.1966
     89  CA        77.7270   48.1530   14.5740 C.3   107  LYS107      0.1728
     90  C         76.8100   48.7910   13.5010 C.2   107  LYS107      0.2616
     91  O         75.9610   48.1110   12.9460 O.2   107  LYS107     -0.2715
     92  CB        77.0900   46.9330   15.3140 C.3   107  LYS107      0.0311
     93  CG        78.1440   46.0560   16.0760 C.3   107  LYS107      0.0038
     94  CD        77.5420   44.9060   16.9880 C.3   107  LYS107      0.0206
     95  CE        78.4360   44.7190   18.3070 C.3   107  LYS107      0.1093
     96  NZ        78.9250   43.3170   18.6580 N.3   107  LYS107     -0.1314
     97  N         77.0150   50.1070   13.2380 N.am  108  PHE108     -0.1974
     98  CA        76.3760   50.8630   12.1610 C.3   108  PHE108      0.1639
     99  C         77.2270   51.0360   10.9040 C.2   108  PHE108      0.2290
    100  O         76.8570   50.5730    9.8370 O.2   108  PHE108     -0.2864
    101  CB        75.9470   52.2360   12.6240 C.3   108  PHE108      0.0560
    102  CG        75.1350   52.9830   11.6220 C.ar  108  PHE108     -0.0200
    103  CD1       73.8650   52.5320   11.2890 C.ar  108  PHE108     -0.0042
    104  CD2       75.6160   54.1480   11.0390 C.ar  108  PHE108     -0.0042
    105  CE1       73.0770   53.2360   10.3690 C.ar  108  PHE108     -0.0003
    106  CE2       74.8560   54.8710   10.1470 C.ar  108  PHE108     -0.0003
    107  CZ        73.5600   54.4160    9.8040 C.ar  108  PHE108     -0.0000
    108  N         80.4950   50.3070    8.4960 N.3   110  ILE110     -0.1245
    109  CA        81.1330   49.0320    8.1770 C.3   110  ILE110      0.1561
    110  C         82.5320   49.2840    7.7520 C.2   110  ILE110      0.2260
    111  O         82.7360   50.1330    6.9010 O.2   110  ILE110     -0.2867
    112  CB        80.4490   48.3740    6.9980 C.3   110  ILE110      0.0252
    113  CG1       79.1070   47.8040    7.3980 C.3   110  ILE110      0.0019
    114  CG2       81.3090   47.2900    6.4260 C.3   110  ILE110      0.0019
    115  CD1       78.1950   47.5150    6.1640 C.3   110  ILE110      0.0001
    116  N         80.6520   54.1880    2.2450 N.3   115  TRP115     -0.1241
    117  CA        79.5720   55.1060    2.4370 C.3   115  TRP115      0.1605
    118  C         79.6370   55.5930    3.8520 C.2   115  TRP115      0.2264
    119  O         80.1980   54.9340    4.6690 O.2   115  TRP115     -0.2867
    120  CB        78.2550   54.4000    2.1840 C.3   115  TRP115      0.0550
    121  CG        77.9490   53.1280    2.9650 C.ar  115  TRP115      0.0003
    122  CD1       78.0410   51.8560    2.5040 C.ar  115  TRP115      0.0946
    123  CD2       77.3400   53.0330    4.2610 C.ar  115  TRP115      0.0152
    124  NE1       77.5990   50.9680    3.4610 N.ar  115  TRP115     -0.2442
    125  CE2       77.1550   51.6750    4.5440 C.ar  115  TRP115      0.0810
    126  CE3       76.9190   53.9680    5.2130 C.ar  115  TRP115      0.0012
    127  CZ2       76.6050   51.2320    5.7370 C.ar  115  TRP115      0.0191
    128  CZ3       76.3800   53.5250    6.3970 C.ar  115  TRP115      0.0001
    129  CH2       76.2100   52.1740    6.6450 C.ar  115  TRP115      0.0015
    130  N         73.0900   57.4020    5.6100 N.3   118  ILE118     -0.1245
    131  CA        71.9580   56.6510    5.0920 C.3   118  ILE118      0.1561
    132  C         70.8640   57.6060    4.6850 C.2   118  ILE118      0.2260
    133  O         70.6550   58.6050    5.3680 O.2   118  ILE118     -0.2867
    134  CB        71.4760   55.6760    6.1500 C.3   118  ILE118      0.0252
    135  CG1       70.3920   54.7840    5.6460 C.3   118  ILE118      0.0019
    136  CG2       70.9530   56.4110    7.4100 C.3   118  ILE118      0.0019
    137  CD1       70.1360   53.6310    6.7320 C.3   118  ILE118      0.0001
    138  N         56.6940   51.5360    6.3840 N.3   198  TYR198     -0.1241
    139  CA        57.5450   50.8750    5.4340 C.3   198  TYR198      0.1605
    140  C         56.8140   50.7540    4.0340 C.2   198  TYR198      0.2264
    141  O         55.7200   51.2370    3.8740 O.2   198  TYR198     -0.2867
    142  CB        57.8260   49.4880    5.9000 C.3   198  TYR198      0.0534
    143  CG        58.4720   49.3620    7.2420 C.ar  198  TYR198     -0.0201
    144  CD1       59.8550   49.2920    7.3900 C.ar  198  TYR198     -0.0009
    145  CD2       57.6770   49.2320    8.3870 C.ar  198  TYR198     -0.0009
    146  CE1       60.4490   49.1250    8.6600 C.ar  198  TYR198      0.0417
    147  CE2       58.2390   49.0850    9.6510 C.ar  198  TYR198      0.0417
    148  CZ        59.6220   49.0360    9.7800 C.ar  198  TYR198      0.1957
    149  OH        60.0940   48.8950   11.0500 O.3   198  TYR198     -0.2866
    150  N         54.3880   41.4930    8.6640 N.3   224  LYS224     -0.1245
    151  CA        54.3570   42.3640    7.4910 C.3   224  LYS224      0.1561
    152  C         55.2400   41.8520    6.4320 C.2   224  LYS224      0.2260
    153  O         56.1050   41.0260    6.6870 O.2   224  LYS224     -0.2867
    154  CB        54.8320   43.7730    7.8070 C.3   224  LYS224      0.0271
    155  CG        56.3500   43.8490    8.1430 C.3   224  LYS224      0.0035
    156  CD        56.7330   45.2950    8.6930 C.3   224  LYS224      0.0206
    157  CE        58.1990   45.3080    9.1060 C.3   224  LYS224      0.1093
    158  NZ        58.5000   44.4500   10.3440 N.3   224  LYS224     -0.1314
    159  N         57.7090   43.4960    3.2670 N.3   226  ILE226     -0.1245
    160  CA        58.2100   44.8260    2.8370 C.3   226  ILE226      0.1561
    161  C         59.2540   44.7390    1.7970 C.2   226  ILE226      0.2260
    162  O         59.8700   43.7220    1.6650 O.2   226  ILE226     -0.2867
    163  CB        58.7210   45.6990    4.0050 C.3   226  ILE226      0.0252
    164  CG1       60.0550   45.2140    4.5660 C.3   226  ILE226      0.0019
    165  CG2       57.7420   45.7050    5.1020 C.3   226  ILE226      0.0019
    166  CD1       60.7210   46.2930    5.4860 C.3   226  ILE226      0.0001
    167  N         62.7470   46.4280    0.6530 N.3   228  ASP228     -0.1239
    168  CA        63.8370   47.0340    1.4390 C.3   228  ASP228      0.1674
    169  C         65.2120   46.9320    0.7350 C.2   228  ASP228      0.2266
    170  O         65.8860   45.9190    0.7970 O.2   228  ASP228     -0.2867
    171  CB        63.9150   46.3370    2.8300 C.3   228  ASP228      0.1410
    172  CG        64.8990   47.0020    3.7850 C.2   228  ASP228      0.3668
    173  OD1       65.3900   48.1190    3.5160 O.co2 228  ASP228     -0.2456
    174  OD2       65.2240   46.4580    4.8540 O.co2 228  ASP228     -0.2456
    175  N         67.9170   48.3170    1.8110 N.3   230  GLY230     -0.1210
    176  CA        68.9530   48.1800    2.8360 C.3   230  GLY230      0.1956
    177  C         69.2560   46.7590    3.3240 C.2   230  GLY230      0.2612
    178  O         70.2190   46.5300    4.0730 O.2   230  GLY230     -0.2717
    179  N         68.4770   45.8040    2.8590 N.am  231  THR231     -0.1952
    180  CA        68.6250   44.3860    3.2220 C.3   231  THR231      0.1897
    181  C         69.1200   43.6150    2.0220 C.2   231  THR231      0.2313
    182  O         68.6880   43.8540    0.9170 O.2   231  THR231     -0.2863
    183  CB        67.2540   43.8010    3.6730 C.3   231  THR231      0.1794
    184  OG1       66.8060   44.4250    4.9100 O.3   231  THR231     -0.2208
    185  CG2       67.3580   42.3290    3.9770 C.3   231  THR231      0.0378
    186  N         64.3370   37.5380    3.2360 N.3   235  ARG235     -0.1245
    187  CA        63.9230   37.1140    4.5720 C.3   235  ARG235      0.1563
    188  C         62.4180   36.7320    4.7680 C.2   235  ARG235      0.2260
    189  O         61.5260   37.5400    4.4050 O.2   235  ARG235     -0.2867
    190  CB        64.1910   38.2500    5.5230 C.3   235  ARG235      0.0307
    191  CG        65.6340   38.4960    5.8060 C.3   235  ARG235      0.0489
    192  CD        65.8370   39.7370    6.6950 C.3   235  ARG235      0.2205
    193  NE        66.4060   39.3800    7.9860 N.pl3 235  ARG235     -0.0865
    194  CZ        66.1720   40.0170    9.1320 C.cat 235  ARG235      0.5346
    195  NH1       66.7570   39.5790   10.2480 N.pl3 235  ARG235      0.1354
    196  NH2       65.3660   41.0710    9.1920 N.pl3 235  ARG235      0.1354
    197  N         60.1820   40.0050   11.9080 N.3   329  THR329     -0.1218
    198  CA        59.8600   41.3580   11.4490 C.3   329  THR329      0.1862
    199  C         58.9180   41.3050   10.2250 C.2   329  THR329      0.2287
    200  O         58.4610   42.3530    9.7910 O.2   329  THR329     -0.2866
    201  CB        61.1830   42.0920   11.0560 C.3   329  THR329      0.1770
    202  OG1       61.9110   41.2820   10.1270 O.3   329  THR329     -0.2211
    203  CG2       62.1540   42.1870   12.1950 C.3   329  THR329      0.0375
    204  N         60.8260   40.2230    4.0070 N.3   332  VAL332     -0.1245
    205  CA        61.6790   41.3210    3.6000 C.3   332  VAL332      0.1561
    206  C         62.2140   40.9760    2.2570 C.2   332  VAL332      0.2260
    207  O         62.9890   40.0440    2.0760 O.2   332  VAL332     -0.2867
    208  CB        62.8830   41.6150    4.5820 C.3   332  VAL332      0.0252
    209  CG1       63.5250   42.9920    4.2810 C.3   332  VAL332      0.0019
    210  CG2       62.4250   41.5660    6.0690 C.3   332  VAL332      0.0019
@<TRIPOS>BOND
     1   167   168    1
     2   169   170    2
     3   169   168    1
     4   182   181    2
     5     3     2    1
     6     3     4    2
     7     9    10    1
     8     2     1    1
     9     2     5    1
    10   168   171    1
    11   162   161    2
    12   161   160    1
    13   175   176    1
    14   181   180    1
    15    11    10    1
    16    11    12    2
    17   207   206    2
    18    10    13    1
    19   120   117    1
    20   120   121    1
    21   116   117    1
    22   206   205    1
    23     6     5    1
    24     6     8    1
    25     6     7    1
    26   117   118    1
    27   122   121   ar
    28   122   124   ar
    29   171   172    1
    30   176   177    1
    31   160   159    1
    32   160   163    1
    33   179   180    1
    34   179   177   am
    35   121   123   ar
    36   180   183    1
    37   186   187    1
    38   177   178    2
    39   124   125   ar
    40   173   172   ar
    41    13    14    1
    42    17    18    1
    43   205   204    1
    44   205   208    1
    45   183   185    1
    46   183   184    1
    47   172   174   ar
    48   118   119    2
    49   141   140    2
    50   163   164    1
    51   163   165    1
    52   140   139    1
    53   123   125   ar
    54   123   126   ar
    55    15    14   ar
    56   209   208    1
    57   189   188    2
    58   125   127   ar
    59   164   166    1
    60   187   188    1
    61   187   190    1
    62   208   210    1
    63    14    16   ar
    64   132   131    1
    65   132   133    2
    66    18    19    1
    67   131   130    1
    68   131   134    1
    69   126   128   ar
    70    24    23    2
    71   139   142    1
    72   139   138    1
    73   190   191    1
    74   135   134    1
    75   135   137    1
    76   127   129   ar
    77    21    19   am
    78    21    22    1
    79   191   192    1
    80   142   143    1
    81    19    20    2
    82   134   136    1
    83   115   113    1
    84   128   129   ar
    85   114   112    1
    86   152   153    2
    87   152   151    1
    88    23    22    1
    89   192   193    1
    90    26    25    1
    91    22    25    1
    92   111   110    2
    93   112   113    1
    94   112   109    1
    95   143   144   ar
    96   143   145   ar
    97   144   146   ar
    98   151   154    1
    99   151   150    1
   100   110   109    1
   101   154   155    1
   102   193   194    2
   103   155   156    1
   104   109   108    1
   105   145   147   ar
   106   146   148   ar
   107   156   157    1
   108   157   158    1
   109   194   196    1
   110   194   195    1
   111   147   148   ar
   112   148   149    1
   113   200   199    2
   114   107   106   ar
   115   107   105   ar
   116   100    99    2
   117   202   201    1
   118   106   104   ar
   119   199   198    1
   120   105   103   ar
   121    99    98    1
   122   104   102   ar
   123   201   198    1
   124   201   203    1
   125   103   102   ar
   126   198   197    1
   127   102   101    1
   128    45    44    1
   129    98   101    1
   130    98    97    1
   131    44    43   ar
   132    44    42   ar
   133    43    41   ar
   134    74    75   ar
   135    74    72   ar
   136    77    75   ar
   137    77    79   ar
   138    91    90    2
   139    75    73   ar
   140    42    40   ar
   141    97    90   am
   142    72    71   ar
   143    79    78   ar
   144    41    39   ar
   145    90    89    1
   146    73    71   ar
   147    73    76   ar
   148    40    39   ar
   149    71    70    1
   150    78    76   ar
   151    39    38    1
   152    89    92    1
   153    89    88    1
   154    70    67    1
   155    32    31    1
   156    38    35    1
   157    92    93    1
   158    33    31    1
   159    88    82   am
   160    31    28    1
   161    51    50    1
   162    50    52    1
   163    50    47    1
   164    93    94    1
   165    83    82    2
   166    67    66    1
   167    67    68    1
   168    82    81    1
   169    60    59    2
   170    46    47    1
   171    46    36   am
   172    66    59   am
   173    35    36    1
   174    35    34    1
   175    59    58    1
   176    49    48    2
   177    30    29    2
   178    94    95    1
   179    68    69    2
   180    47    48    1
   181    80    81    1
   182    36    37    2
   183    28    29    1
   184    28    27    1
   185    81    84    1
   186    57    58    1
   187    57    55   am
   188    58    61    1
   189    54    55    1
   190    54    53    1
   191    55    56    2
   192    95    96    1
   193    84    85    1
   194    86    85   ar
   195    61    62    1
   196    85    87   ar
   197    62    63    1
   198    63    64    1
   199    65    64    1
