@<TRIPOS>MOLECULE
tmp/2q16A00.pdb
 200 189 0 0 0
SMALL
GASTEIGER

@<TRIPOS>ATOM
      1  N         41.3580   16.5230   14.3490 N.3     6  ALA6       -0.1231
      2  CA        42.4220   15.5280   14.4850 C.3     6  ALA6        0.1694
      3  C         42.1320   14.2500   13.6850 C.2     6  ALA6        0.2593
      4  O         42.0780   13.1440   14.2380 O.2     6  ALA6       -0.2718
      5  CB        42.6210   15.1810   15.9530 C.3     6  ALA6        0.0304
      6  N         41.9460   14.4140   12.3830 N.am    7  THR7       -0.1939
      7  CA        41.7050   13.2790   11.4950 C.3     7  THR7        0.2028
      8  C         42.4600   13.5130   10.2150 C.2     7  THR7        0.2643
      9  O         42.6850   14.6560    9.8450 O.2     7  THR7       -0.2714
     10  CB        40.2080   13.1270   11.1330 C.3     7  THR7        0.1808
     11  OG1       40.0240   11.9570   10.3280 O.3     7  THR7       -0.2208
     12  CG2       39.6730   14.3720   10.3990 C.3     7  THR7        0.0379
     13  N         42.8320   12.4340    9.5300 N.am    8  GLY8       -0.1939
     14  CA        43.4470   12.5770    8.1970 C.3     8  GLY8        0.2014
     15  C         42.4710   12.0160    7.1810 C.2     8  GLY8        0.2638
     16  O         42.8150   11.8390    6.0240 O.2     8  GLY8       -0.2714
     17  N         41.2430   11.7280    7.6230 N.am    9  ASN9       -0.1972
     18  CA        40.2170   11.1440    6.7380 C.3     9  ASN9        0.1688
     19  C         39.3540   12.2430    6.0820 C.2     9  ASN9        0.2292
     20  O         38.5360   12.8870    6.7510 O.2     9  ASN9       -0.2864
     21  CB        39.3860   10.0940    7.5220 C.3     9  ASN9        0.1181
     22  CG        38.4960    9.2080    6.6100 C.2     9  ASN9        0.2629
     23  OD1       38.3790    7.9660    6.8100 O.2     9  ASN9       -0.2716
     24  ND2       37.8220    9.8360    5.6600 N.am    9  ASN9       -0.0877
     25  N         35.5930   11.9510    6.6220 N.3    12  LYS12      -0.1245
     26  CA        35.1590   12.4800    7.9230 C.3    12  LYS12       0.1561
     27  C         35.1610   14.0280    7.9270 C.2    12  LYS12       0.2260
     28  O         34.2250   14.6460    8.4180 O.2    12  LYS12      -0.2867
     29  CB        36.0520   11.9780    9.0710 C.3    12  LYS12       0.0271
     30  CG        36.0450   10.4730    9.3210 C.3    12  LYS12       0.0035
     31  CD        36.9730   10.1250   10.4920 C.3    12  LYS12       0.0206
     32  CE        36.9980    8.6740   10.7990 C.3    12  LYS12       0.1093
     33  NZ        37.8570    8.4220   11.9640 N.3    12  LYS12      -0.1314
     34  N         44.2390   18.7440   10.8210 N.3    30  GLN30      -0.1245
     35  CA        45.5570   18.5210   11.4200 C.3    30  GLN30       0.1566
     36  C         46.7150   18.4600   10.3870 C.2    30  GLN30       0.2260
     37  O         47.8190   18.8220   10.7100 O.2    30  GLN30      -0.2867
     38  CB        45.5560   17.2710   12.3390 C.3    30  GLN30       0.0367
     39  CG        45.6930   15.9350   11.6060 C.3    30  GLN30       0.0905
     40  CD        45.6110   14.7450   12.5540 C.2    30  GLN30       0.2608
     41  OE1       45.3780   14.9070   13.7600 O.2    30  GLN30      -0.2717
     42  NE2       45.8140   13.5440   12.0140 N.am   30  GLN30      -0.0878
     43  N         49.7640   11.0810   11.7450 N.3    37  SER37      -0.1217
     44  CA        48.7500   10.2330   12.3650 C.3    37  SER37       0.1889
     45  C         49.2590    9.6350   13.6810 C.2    37  SER37       0.2288
     46  O         50.4100    9.1600   13.7570 O.2    37  SER37      -0.2866
     47  CB        48.2540    9.1640   11.3850 C.3    37  SER37       0.2089
     48  OG        47.1870    9.7020   10.5860 O.3    37  SER37      -0.2183
     49  N         47.2800    4.4730   16.9610 N.3    40  GLU40      -0.1245
     50  CA        46.0270    3.9930   17.5640 C.3    40  GLU40       0.1567
     51  C         46.2190    2.6510   18.2670 C.2    40  GLU40       0.2260
     52  O         46.0680    1.5970   17.6690 O.2    40  GLU40      -0.2867
     53  CB        44.9020    3.9420   16.5240 C.3    40  GLU40       0.0388
     54  CG        43.9760    5.1680   16.5730 C.3    40  GLU40       0.1160
     55  CD        42.9390    5.1870   15.4630 C.2    40  GLU40       0.3649
     56  OE1       41.7030    5.1570   15.7370 O.co2  40  GLU40      -0.2457
     57  OE2       43.3620    5.2460   14.2980 O.co2  40  GLU40      -0.2457
     58  N         43.8920   10.2020   19.6930 N.3    52  LYS52      -0.1245
     59  CA        44.0460   11.0510   18.5030 C.3    52  LYS52       0.1561
     60  C         43.8310   12.5240   18.8270 C.2    52  LYS52       0.2260
     61  O         44.6270   13.3750   18.4020 O.2    52  LYS52      -0.2867
     62  CB        43.1030   10.6200   17.3690 C.3    52  LYS52       0.0271
     63  CG        43.5450    9.3110   16.7010 C.3    52  LYS52       0.0035
     64  CD        42.6570    8.9300   15.5050 C.3    52  LYS52       0.0206
     65  CE        41.2860    8.4900   15.9140 C.3    52  LYS52       0.1093
     66  NZ        40.5920    7.8690   14.7240 N.3    52  LYS52      -0.1314
     67  N         37.6450   11.7830   15.8180 N.3    67  ASP67      -0.1225
     68  CA        36.5860   10.8280   15.5680 C.3    67  ASP67       0.1805
     69  C         37.2220    9.4560   15.4640 C.2    67  ASP67       0.2598
     70  O         38.1860    9.2840   14.7130 O.2    67  ASP67      -0.2718
     71  CB        35.8920   11.2100   14.2280 C.3    67  ASP67       0.1424
     72  CG        35.0330   10.0760   13.6290 C.2    67  ASP67       0.3668
     73  OD1       33.9410   10.3990   13.1060 O.co2  67  ASP67      -0.2456
     74  OD2       35.4470    8.8930   13.6130 O.co2  67  ASP67      -0.2456
     75  N         36.7300    8.4950   16.2460 N.am   68  ALA68      -0.1966
     76  CA        37.0970    7.0980   16.0620 C.3    68  ALA68       0.1728
     77  C         35.8150    6.3840   15.7020 C.2    68  ALA68       0.2617
     78  O         34.8030    6.4870   16.4000 O.2    68  ALA68      -0.2715
     79  CB        37.7110    6.4760   17.3410 C.3    68  ALA68       0.0334
     80  N         35.8380    5.6630   14.5960 N.am   69  SER69      -0.1936
     81  CA        34.6110    5.0610   14.1490 C.3    69  SER69       0.2055
     82  C         34.8950    3.7390   13.4540 C.2    69  SER69       0.2643
     83  O         36.0600    3.4150   13.1970 O.2    69  SER69      -0.2714
     84  CB        33.8070    6.0460   13.2790 C.3    69  SER69       0.2130
     85  OG        34.6100    6.6130   12.2850 O.3    69  SER69      -0.2179
     86  N         33.8510    2.9440   13.2300 N.am   70  GLY70      -0.1954
     87  CA        34.0410    1.7290   12.4750 C.3    70  GLY70       0.1869
     88  C         32.7500    0.9700   12.2410 C.2    70  GLY70       0.2309
     89  O         31.6900    1.3580   12.7480 O.2    70  GLY70      -0.2863
     90  N         37.1070   -1.9030   15.6290 N.3    82  ILE82      -0.1245
     91  CA        38.1140   -0.8390   15.7870 C.3    82  ILE82       0.1561
     92  C         39.2390   -1.0270   14.7550 C.2    82  ILE82       0.2260
     93  O         40.0800   -0.1320   14.5720 O.2    82  ILE82      -0.2867
     94  CB        38.7260   -0.7270   17.2370 C.3    82  ILE82       0.0252
     95  CG1       39.4790   -1.9810   17.5890 C.3    82  ILE82       0.0019
     96  CG2       37.6680   -0.3800   18.3410 C.3    82  ILE82       0.0019
     97  CD1       40.4580   -1.7730   18.7790 C.3    82  ILE82       0.0001
     98  N         38.5790   -1.3480   11.5010 N.3    84  SER84      -0.1202
     99  CA        37.8550   -1.0990   10.2620 C.3    84  SER84       0.2020
    100  C         38.7640   -0.4930    9.1620 C.2    84  SER84       0.2618
    101  O         38.6600   -0.8790    7.9730 O.2    84  SER84      -0.2717
    102  CB        36.6380   -0.1700   10.5410 C.3    84  SER84       0.2103
    103  OG        35.5680   -0.9180   11.1380 O.3    84  SER84      -0.2182
    104  N         39.6130    0.4590    9.5390 N.am   85  ALA85      -0.1979
    105  CA        40.4700    1.1660    8.5680 C.3    85  ALA85       0.1597
    106  C         41.5130    0.2560    7.9330 C.2    85  ALA85       0.2287
    107  O         41.8690    0.4490    6.7570 O.2    85  ALA85      -0.2864
    108  CB        41.1890    2.3800    9.2110 C.3    85  ALA85       0.0319
    109  N         39.4270    2.2030    0.8020 N.3    94  ASP94      -0.1239
    110  CA        38.0110    1.9790    1.0940 C.3    94  ASP94       0.1674
    111  C         37.4580    0.8300    0.2600 C.2    94  ASP94       0.2266
    112  O         36.7360   -0.0250    0.7800 O.2    94  ASP94      -0.2867
    113  CB        37.1730    3.2560    0.8630 C.3    94  ASP94       0.1410
    114  CG        37.4450    4.3420    1.9080 C.2    94  ASP94       0.3668
    115  OD1       38.1540    4.0740    2.9120 O.co2  94  ASP94      -0.2456
    116  OD2       36.8970    5.4610    1.7570 O.co2  94  ASP94      -0.2456
    117  N         38.9310   -2.6390    1.3700 N.3    97  ASN97      -0.1240
    118  CA        38.2710   -3.0010    2.6130 C.3    97  ASN97       0.1653
    119  C         36.8390   -3.4930    2.3780 C.2    97  ASN97       0.2266
    120  O         36.4620   -4.5450    2.8920 O.2    97  ASN97      -0.2867
    121  CB        38.2460   -1.7980    3.5890 C.3    97  ASN97       0.1155
    122  CG        39.5730   -1.6040    4.2900 C.2    97  ASN97       0.2627
    123  OD1       40.4340   -2.4950    4.2860 O.2    97  ASN97      -0.2716
    124  ND2       39.7450   -0.4430    4.9030 N.am   97  ASN97      -0.0877
    125  N         27.2590    0.8240   12.3480 N.3   116  PHE116     -0.1241
    126  CA        28.3670    1.7730   12.4410 C.3   116  PHE116      0.1605
    127  C         28.3700    2.3660   13.8530 C.2   116  PHE116      0.2264
    128  O         27.2940    2.6030   14.4460 O.2   116  PHE116     -0.2867
    129  CB        28.1940    2.9270   11.4710 C.3   116  PHE116      0.0534
    130  CG        28.6370    2.6330   10.0600 C.ar  116  PHE116     -0.0203
    131  CD1       29.9610    2.3390    9.7720 C.ar  116  PHE116     -0.0042
    132  CD2       27.7150    2.7130    9.0080 C.ar  116  PHE116     -0.0042
    133  CE1       30.3730    2.0790    8.4580 C.ar  116  PHE116     -0.0003
    134  CE2       28.1110    2.4540    7.6950 C.ar  116  PHE116     -0.0003
    135  CZ        29.4500    2.1480    7.4230 C.ar  116  PHE116     -0.0000
    136  N         31.8160    7.5250    1.9940 N.3   152  PHE152     -0.1227
    137  CA        33.1600    6.9650    1.9660 C.3   152  PHE152      0.1736
    138  C         33.1630    5.6270    2.6760 C.2   152  PHE152      0.2596
    139  O         32.1180    5.1600    3.1510 O.2   152  PHE152     -0.2718
    140  CB        34.1570    7.9390    2.6410 C.3   152  PHE152      0.0547
    141  CG        33.9770    8.0720    4.1430 C.ar  152  PHE152     -0.0202
    142  CD1       34.8390    7.4100    5.0150 C.ar  152  PHE152     -0.0042
    143  CD2       33.0000    8.9250    4.6810 C.ar  152  PHE152     -0.0042
    144  CE1       34.6900    7.5580    6.3980 C.ar  152  PHE152     -0.0003
    145  CE2       32.8460    9.0680    6.0330 C.ar  152  PHE152     -0.0003
    146  CZ        33.6890    8.4010    6.8930 C.ar  152  PHE152     -0.0000
    147  N         34.3260    4.9900    2.7130 N.am  153  GLY153     -0.1942
    148  CA        34.4790    3.7670    3.5030 C.3   153  GLY153      0.2014
    149  C         33.4980    2.6960    3.0320 C.2   153  GLY153      0.2639
    150  O         33.3810    2.4360    1.8320 O.2   153  GLY153     -0.2714
    151  N         32.8110    2.0760    3.9810 N.am  154  TYR154     -0.1959
    152  CA        31.9390    0.9390    3.7040 C.3   154  TYR154      0.1771
    153  C         30.5270    1.3550    3.2680 C.2   154  TYR154      0.2619
    154  O         29.6340    0.4940    3.1770 O.2   154  TYR154     -0.2715
    155  CB        31.8560    0.0140    4.9330 C.3   154  TYR154      0.0574
    156  CG        33.1780   -0.5600    5.3910 C.ar  154  TYR154     -0.0198
    157  CD1       33.6440   -1.7740    4.8730 C.ar  154  TYR154     -0.0009
    158  CD2       33.9730    0.1160    6.3310 C.ar  154  TYR154     -0.0009
    159  CE1       34.8650   -2.3190    5.3090 C.ar  154  TYR154      0.0417
    160  CE2       35.2040   -0.4120    6.7460 C.ar  154  TYR154      0.0417
    161  CZ        35.6370   -1.6220    6.2340 C.ar  154  TYR154      0.1957
    162  OH        36.8350   -2.1540    6.6340 O.3   154  TYR154     -0.2866
    163  N         30.3140    2.6520    3.0180 N.am  155  ASP155     -0.1971
    164  CA        28.9540    3.1820    2.7210 C.3   155  ASP155      0.1709
    165  C         28.2520    2.4200    1.5700 C.2   155  ASP155      0.2293
    166  O         27.0280    2.1850    1.6440 O.2   155  ASP155     -0.2864
    167  CB        28.9690    4.6960    2.4180 C.3   155  ASP155      0.1436
    168  CG        29.0430    5.5580    3.6730 C.2   155  ASP155      0.3671
    169  OD1       28.8130    5.0290    4.7810 O.co2 155  ASP155     -0.2456
    170  OD2       29.3550    6.7810    3.5560 O.co2 155  ASP155     -0.2456
    171  N         22.3570   11.5940    4.8750 N.3   175  LYS175     -0.1245
    172  CA        23.2680   10.8110    5.6850 C.3   175  LYS175      0.1561
    173  C         23.5420   11.5390    7.0080 C.2   175  LYS175      0.2260
    174  O         23.4550   10.9480    8.0780 O.2   175  LYS175     -0.2867
    175  CB        24.5830   10.5100    4.9190 C.3   175  LYS175      0.0271
    176  CG        25.4840    9.6010    5.7320 C.3   175  LYS175      0.0035
    177  CD        26.8440    9.3140    5.1060 C.3   175  LYS175      0.0206
    178  CE        27.7500    8.6430    6.1560 C.3   175  LYS175      0.1093
    179  NZ        29.1340    8.4250    5.6060 N.3   175  LYS175     -0.1314
    180  N         25.5510    7.4950   12.4150 N.3   180  HIS180     -0.1226
    181  CA        26.2980    7.4200   13.6610 C.3   180  HIS180      0.1752
    182  C         27.0440    8.7370   13.9290 C.2   180  HIS180      0.2595
    183  O         27.0660    9.2270   15.0590 O.2   180  HIS180     -0.2718
    184  CB        27.3030    6.2530   13.6080 C.3   180  HIS180      0.0759
    185  CG        28.2230    6.2800   12.4220 C.ar  180  HIS180      0.0818
    186  ND1       27.7660    6.3970   11.1190 N.ar  180  HIS180     -0.2268
    187  CD2       29.5730    6.1680   12.3380 C.ar  180  HIS180      0.1154
    188  CE1       28.8000    6.4140   10.2920 C.ar  180  HIS180      0.1986
    189  NE2       29.9070    6.2600   11.0020 N.ar  180  HIS180     -0.2212
    190  N         27.6340    9.3150   12.8750 N.am  181  ARG181     -0.1980
    191  CA        28.4150   10.5540   13.0100 C.3   181  ARG181      0.1597
    192  C         27.5430   11.8340   13.1870 C.2   181  ARG181      0.2287
    193  O         27.8900   12.7030   13.9770 O.2   181  ARG181     -0.2864
    194  CB        29.3730   10.7100   11.8220 C.3   181  ARG181      0.0334
    195  CG        30.2050   12.0440   11.7480 C.3   181  ARG181      0.0492
    196  CD        31.2940   11.9870   10.6400 C.3   181  ARG181      0.2205
    197  NE        32.1850   10.8720   10.9790 N.pl3 181  ARG181     -0.0865
    198  CZ        32.1540    9.6620   10.4050 C.cat 181  ARG181      0.5346
    199  NH1       31.3590    9.3940    9.3440 N.pl3 181  ARG181      0.1354
    200  NH2       32.9090    8.7080   10.9090 N.pl3 181  ARG181      0.1354
@<TRIPOS>BOND
     1   111   112    2
     2   111   110    1
     3   109   110    1
     4   113   110    1
     5   113   114    1
     6   117   118    1
     7   165   166    2
     8   165   164    1
     9   116   114   ar
    10   150   149    2
    11   114   115   ar
    12   137   136    1
    13   137   140    1
    14   137   138    1
    15   119   118    1
    16   119   120    2
    17   167   164    1
    18   167   168    1
    19   118   121    1
    20   140   141    1
    21   138   147   am
    22   138   139    2
    23   147   148    1
    24   164   163    1
    25   163   153   am
    26   149   148    1
    27   149   151   am
    28   154   153    2
    29   153   152    1
    30   170   168   ar
    31   121   122    1
    32   168   169   ar
    33   152   151    1
    34   152   155    1
    35   141   143   ar
    36   141   142   ar
    37   123   122    2
    38   122   124   am
    39   143   145   ar
    40   157   159   ar
    41   157   156   ar
    42   171   172    1
    43   175   172    1
    44   175   176    1
    45   155   156    1
    46   142   144   ar
    47   177   176    1
    48   177   178    1
    49   159   161   ar
    50   156   158   ar
    51   179   178    1
    52    24    22   am
    53   172   173    1
    54    16    15    2
    55   145   146   ar
    56    19    18    1
    57    19    20    2
    58   161   162    1
    59   161   160   ar
    60   158   160   ar
    61   144   146   ar
    62    22    23    2
    63    22    21    1
    64    25    26    1
    65    18    21    1
    66    18    17    1
    67   107   106    2
    68   173   174    2
    69    15    17   am
    70    15    14    1
    71   135   134   ar
    72   135   133   ar
    73   134   132   ar
    74    26    27    1
    75    26    29    1
    76    27    28    2
    77   106   105    1
    78   101   100    2
    79    14    13    1
    80   133   131   ar
    81   105   108    1
    82   105   104    1
    83   132   130   ar
    84    29    30    1
    85   100   104   am
    86   100    99    1
    87    30    31    1
    88   199   198    1
    89    13     8   am
    90   131   130   ar
    91     9     8    2
    92   130   129    1
    93     8     7    1
    94    99   102    1
    95    99    98    1
    96   188   189   ar
    97   188   186   ar
    98    11    10    1
    99    36    37    2
   100    36    35    1
   101    12    10    1
   102   198   200    1
   103   198   197    2
   104    31    32    1
   105   102   103    1
   106    48    47    1
   107   196   197    1
   108   196   195    1
   109    32    33    1
   110    34    35    1
   111   189   187   ar
   112   186   185   ar
   113    10     7    1
   114    47    44    1
   115    35    38    1
   116   129   126    1
   117     7     6    1
   118    39    38    1
   119    39    40    1
   120    43    44    1
   121   195   194    1
   122   194   191    1
   123    42    40   am
   124    88    87    1
   125    88    89    2
   126    85    84    1
   127   187   185   ar
   128   125   126    1
   129    44    45    1
   130     6     3   am
   131   180   181    1
   132   185   184    1
   133   126   127    1
   134    87    86    1
   135    40    41    2
   136   190   191    1
   137   190   182   am
   138   191   192    1
   139    73    72   ar
   140   192   193    2
   141    83    82    2
   142    86    82   am
   143    84    81    1
   144    82    81    1
   145   184   181    1
   146    74    72   ar
   147    72    71    1
   148   181   182    1
   149    45    46    2
   150     3     4    2
   151     3     2    1
   152   127   128    2
   153   182   183    2
   154    81    80    1
   155    71    68    1
   156    57    55   ar
   157     1     2    1
   158     2     5    1
   159    93    92    2
   160    80    77   am
   161    70    69    2
   162    66    65    1
   163    92    91    1
   164    55    56   ar
   165    55    54    1
   166    69    68    1
   167    69    75   am
   168    64    65    1
   169    64    63    1
   170    68    67    1
   171    90    91    1
   172    77    76    1
   173    77    78    2
   174    91    94    1
   175    76    75    1
   176    76    79    1
   177    53    54    1
   178    53    50    1
   179    63    62    1
   180    49    50    1
   181    94    95    1
   182    94    96    1
   183    62    59    1
   184    50    51    1
   185    95    97    1
   186    52    51    2
   187    61    60    2
   188    59    60    1
   189    59    58    1
