@<TRIPOS>MOLECULE
tmp/2q1bA01.pdb
 108 104 0 0 0
SMALL
GASTEIGER

@<TRIPOS>ATOM
      1  N          8.4170    8.0240   11.2010 N.3    89  GLN89      -0.1245
      2  CA         8.7480    6.9020   10.3640 C.3    89  GLN89       0.1566
      3  C          8.4710    5.6180   11.1520 C.2    89  GLN89       0.2260
      4  O          8.3300    5.6970   12.3460 O.2    89  GLN89      -0.2867
      5  CB        10.2020    6.8620    9.9210 C.3    89  GLN89       0.0367
      6  CG        11.2290    6.9160   11.0560 C.3    89  GLN89       0.0905
      7  CD        12.0360    5.6410   11.1670 C.2    89  GLN89       0.2608
      8  OE1       11.4870    4.5460   11.1400 O.2    89  GLN89      -0.2717
      9  NE2       13.3450    5.7500   11.3010 N.am   89  GLN89      -0.0878
     10  N          9.8630    1.3070   10.9240 N.3    91  HIS91      -0.1241
     11  CA        10.7020    0.2980   10.3240 C.3    91  HIS91       0.1621
     12  C         10.6490   -0.9830   11.1610 C.2    91  HIS91       0.2264
     13  O         10.0770   -0.9970   12.2370 O.2    91  HIS91      -0.2867
     14  CB        12.1560    0.7720   10.2670 C.3    91  HIS91       0.0745
     15  CG        12.7080    1.1120   11.6060 C.ar   91  HIS91       0.0817
     16  ND1       12.6260    2.3350   12.2130 N.ar   91  HIS91      -0.2268
     17  CD2       13.3710    0.3020   12.4780 C.ar   91  HIS91       0.1154
     18  CE1       13.2190    2.2630   13.3950 C.ar   91  HIS91       0.1986
     19  NE2       13.6790    1.0370   13.5900 N.ar   91  HIS91      -0.2212
     20  N         13.0460   -4.6570   12.4930 N.3    93  HIS93      -0.1241
     21  CA        14.2090   -5.5000   12.6930 C.3    93  HIS93       0.1621
     22  C         13.7730   -6.9700   12.5810 C.2    93  HIS93       0.2264
     23  O         12.7110   -7.3110   13.1100 O.2    93  HIS93      -0.2867
     24  CB        14.9250   -5.2450   14.0160 C.3    93  HIS93       0.0745
     25  CG        15.1800   -3.7970   14.2630 C.ar   93  HIS93       0.0817
     26  ND1       16.4390   -3.2350   14.1070 N.ar   93  HIS93      -0.2268
     27  CD2       14.3520   -2.7960   14.6090 C.ar   93  HIS93       0.1154
     28  CE1       16.3300   -1.9360   14.3950 C.ar   93  HIS93       0.1986
     29  NE2       15.0810   -1.6520   14.7050 N.ar   93  HIS93      -0.2212
     30  N          9.1670   -0.9000   14.8050 N.3   116  HIS116     -0.1241
     31  CA         9.3960    0.3350   15.5570 C.3   116  HIS116      0.1621
     32  C          8.6660    1.5120   14.9020 C.2   116  HIS116      0.2264
     33  O          8.9940    1.8340   13.7760 O.2   116  HIS116     -0.2867
     34  CB        10.8990    0.6030   15.6070 C.3   116  HIS116      0.0745
     35  CG        11.5740   -0.3480   16.5470 C.ar  116  HIS116      0.0817
     36  ND1       12.9240   -0.5690   16.6260 N.ar  116  HIS116     -0.2268
     37  CD2       11.0140   -1.1370   17.5110 C.ar  116  HIS116      0.1154
     38  CE1       13.1710   -1.4610   17.5660 C.ar  116  HIS116      0.1986
     39  NE2       12.0080   -1.8290   18.1270 N.ar  116  HIS116     -0.2212
     40  N          8.3870    5.3000   15.1860 N.3   118  VAL118     -0.1245
     41  CA         9.1870    6.3680   15.7910 C.3   118  VAL118      0.1561
     42  C          8.4690    7.7140   15.8010 C.2   118  VAL118      0.2260
     43  O          7.9770    8.1650   14.7550 O.2   118  VAL118     -0.2867
     44  CB        10.5290    6.4670   15.0320 C.3   118  VAL118      0.0252
     45  CG1       11.4430    7.5100   15.6530 C.3   118  VAL118      0.0019
     46  CG2       11.2320    5.1330   14.9160 C.3   118  VAL118      0.0019
     47  N         12.7040   16.8570   14.7600 N.3   127  PHE127     -0.1241
     48  CA        13.3700   15.6390   15.2110 C.3   127  PHE127      0.1605
     49  C         14.7900   15.9110   15.6780 C.2   127  PHE127      0.2264
     50  O         15.2690   15.3230   16.6390 O.2   127  PHE127     -0.2867
     51  CB        13.3500   14.6180   14.0700 C.3   127  PHE127      0.0534
     52  CG        14.0550   13.3080   14.3480 C.ar  127  PHE127     -0.0203
     53  CD1       13.3380   12.2560   14.8940 C.ar  127  PHE127     -0.0042
     54  CD2       15.3990   13.1050   14.0790 C.ar  127  PHE127     -0.0042
     55  CE1       13.9530   11.0470   15.1500 C.ar  127  PHE127     -0.0003
     56  CE2       16.0300   11.8990   14.3310 C.ar  127  PHE127     -0.0003
     57  CZ        15.2940   10.8720   14.8730 C.ar  127  PHE127     -0.0000
     58  N         12.0500   11.4710   22.1960 N.3   137  LEU137     -0.1245
     59  CA        11.4380   10.4930   21.3000 C.3   137  LEU137      0.1561
     60  C         10.5620    9.4900   22.0460 C.2   137  LEU137      0.2260
     61  O         10.7830    9.1980   23.2300 O.2   137  LEU137     -0.2867
     62  CB        12.5280    9.7220   20.5610 C.3   137  LEU137      0.0270
     63  CG        13.4760   10.4530   19.6220 C.3   137  LEU137      0.0019
     64  CD1       14.4270    9.4830   18.9170 C.3   137  LEU137      0.0001
     65  CD2       12.7080   11.2650   18.5720 C.3   137  LEU137      0.0001
     66  N          9.2270    5.5580   21.0170 N.3   139  VAL139     -0.1245
     67  CA         9.1210    4.4540   20.0900 C.3   139  VAL139      0.1561
     68  C          8.0900    3.4490   20.6120 C.2   139  VAL139      0.2260
     69  O          8.1610    2.9460   21.7260 O.2   139  VAL139     -0.2867
     70  CB        10.4710    3.7970   19.7550 C.3   139  VAL139      0.0252
     71  CG1       10.2710    2.8010   18.6370 C.3   139  VAL139      0.0019
     72  CG2       11.4230    4.8930   19.3340 C.3   139  VAL139      0.0019
     73  N         18.0610    4.9260   21.1390 N.3   194  LEU194     -0.1231
     74  CA        18.0460    4.3670   19.7890 C.3   194  LEU194      0.1693
     75  C         18.7420    3.0090   19.8000 C.2   194  LEU194      0.2593
     76  O         19.7090    2.8560   20.5740 O.2   194  LEU194     -0.2718
     77  CB        18.7940    5.3210   18.8880 C.3   194  LEU194      0.0284
     78  CG        18.0000    6.3280   18.0520 C.3   194  LEU194      0.0019
     79  CD1       17.1000    7.1810   18.9110 C.3   194  LEU194      0.0001
     80  CD2       19.0160    7.1460   17.2450 C.3   194  LEU194      0.0001
     81  N         18.3150    2.0240   19.0260 N.am  195  THR195     -0.1939
     82  CA        19.0000    0.7150   19.0090 C.3   195  THR195      0.2028
     83  C         20.0070    0.6330   17.8660 C.2   195  THR195      0.2642
     84  O         20.6330   -0.4100   17.6550 O.2   195  THR195     -0.2714
     85  CB        18.0270   -0.4680   18.9190 C.3   195  THR195      0.1808
     86  OG1       17.3420   -0.4210   17.6590 O.3   195  THR195     -0.2208
     87  CG2       16.9120   -0.4370   19.9520 C.3   195  THR195      0.0379
     88  N         20.1590    1.7040   17.0950 N.am  196  THR196     -0.1950
     89  CA        21.1280    1.8240   16.0060 C.3   196  THR196      0.1897
     90  C         21.9990    3.0460   16.2670 C.2   196  THR196      0.2313
     91  O         21.4690    3.9910   16.8610 O.2   196  THR196     -0.2863
     92  CB        20.5170    2.0140   14.6050 C.3   196  THR196      0.1794
     93  OG1       19.5340    3.0570   14.6580 O.3   196  THR196     -0.2208
     94  CG2       19.8040    0.7530   14.1620 C.3   196  THR196      0.0378
     95  N         10.5000    4.0700   25.5940 N.3   205  TRP205     -0.1241
     96  CA        10.0530    2.8560   24.9160 C.3   205  TRP205      0.1605
     97  C          8.6790    2.4580   25.4180 C.2   205  TRP205      0.2264
     98  O          8.4390    2.4030   26.6140 O.2   205  TRP205     -0.2867
     99  CB        11.0390    1.6970   25.1510 C.3   205  TRP205      0.0550
    100  CG        12.1670    1.8670   24.1720 C.ar  205  TRP205      0.0003
    101  CD1       13.3900    2.4220   24.3580 C.ar  205  TRP205      0.0946
    102  CD2       12.0990    1.4290   22.8050 C.ar  205  TRP205      0.0152
    103  NE1       14.1030    2.3690   23.1760 N.ar  205  TRP205     -0.2442
    104  CE2       13.3280    1.7610   22.2190 C.ar  205  TRP205      0.0810
    105  CE3       11.1050    0.7940   22.0500 C.ar  205  TRP205      0.0012
    106  CZ2       13.6420    1.4900   20.8850 C.ar  205  TRP205      0.0191
    107  CZ3       11.4040    0.5210   20.7230 C.ar  205  TRP205      0.0001
    108  CH2       12.6410    0.8720   20.1780 C.ar  205  TRP205      0.0015
@<TRIPOS>BOND
     1     5     2    1
     2     5     6    1
     3    14    11    1
     4    14    15    1
     5    11    10    1
     6    11    12    1
     7     2     3    1
     8     2     1    1
     9     6     7    1
    10     8     7    2
    11     3     4    2
    12    12    13    2
    13     7     9   am
    14    15    16   ar
    15    15    17   ar
    16    16    18   ar
    17    17    19   ar
    18    20    21    1
    19    22    21    1
    20    22    23    2
    21    21    24    1
    22    18    19   ar
    23    33    32    2
    24    24    25    1
    25    51    52    1
    26    51    48    1
    27    54    56   ar
    28    54    52   ar
    29    26    25   ar
    30    26    28   ar
    31    94    92    1
    32    25    27   ar
    33    56    57   ar
    34    52    53   ar
    35    28    29   ar
    36    92    93    1
    37    92    89    1
    38    27    29   ar
    39    43    42    2
    40    47    48    1
    41    30    31    1
    42    57    55   ar
    43    53    55   ar
    44    32    31    1
    45    46    44    1
    46    44    45    1
    47    44    41    1
    48    40    41    1
    49    48    49    1
    50    31    34    1
    51    34    35    1
    52    49    50    2
    53    41    42    1
    54    89    90    1
    55    89    88    1
    56    90    91    2
    57    35    36   ar
    58    35    37   ar
    59    36    38   ar
    60    88    83   am
    61    80    78    1
    62    37    39   ar
    63    38    39   ar
    64    84    83    2
    65    86    85    1
    66    83    82    1
    67    78    77    1
    68    78    79    1
    69    65    63    1
    70    71    70    1
    71    77    74    1
    72    64    63    1
    73    85    82    1
    74    85    87    1
    75    82    81    1
    76    81    75   am
    77    72    70    1
    78    63    62    1
    79    70    67    1
    80    74    75    1
    81    74    73    1
    82    75    76    2
    83    67    68    1
    84    67    66    1
    85   108   107   ar
    86   108   106   ar
    87    62    59    1
    88    68    69    2
    89   107   105   ar
    90   106   104   ar
    91    59    60    1
    92    59    58    1
    93    60    61    2
    94   105   102   ar
    95   104   102   ar
    96   104   103   ar
    97   102   100   ar
    98   103   101   ar
    99   100   101   ar
   100   100    99    1
   101    96    99    1
   102    96    97    1
   103    96    95    1
   104    97    98    2
