@<TRIPOS>MOLECULE
tmp/2q1cA00.pdb
 135 124 0 0 0
SMALL
GASTEIGER

@<TRIPOS>ATOM
      1  N         10.1510    3.9080   33.5030 N.3    79  SER79      -0.1202
      2  CA        10.8520    3.2620   34.6010 C.3    79  SER79       0.2020
      3  C         10.8330    4.1880   35.8110 C.2    79  SER79       0.2619
      4  O         11.3080    5.3190   35.7340 O.2    79  SER79      -0.2717
      5  CB        12.2890    2.9500   34.1840 C.3    79  SER79       0.2103
      6  OG        12.9470    2.1620   35.1550 O.3    79  SER79      -0.2182
      7  N         10.2840    3.7060   36.9230 N.am   80  GLY80      -0.1942
      8  CA        10.0840    4.5380   38.1110 C.3    80  GLY80       0.2014
      9  C         11.0790    4.3700   39.2480 C.2    80  GLY80       0.2639
     10  O         11.6400    3.2900   39.4430 O.2    80  GLY80      -0.2714
     11  N         11.2790    5.4570   39.9970 N.am   81  ILE81      -0.1963
     12  CA        12.1220    5.5030   41.2080 C.3    81  ILE81       0.1727
     13  C         13.5280    4.9360   40.9780 C.2    81  ILE81       0.2616
     14  O         13.9050    3.8940   41.5220 O.2    81  ILE81      -0.2715
     15  CB        11.4290    4.8420   42.4350 C.3    81  ILE81       0.0290
     16  CG1        9.9530    5.2420   42.4940 C.3    81  ILE81       0.0022
     17  CG2       12.1250    5.2450   43.7330 C.3    81  ILE81       0.0023
     18  CD1        9.0550    4.1500   43.0030 C.3    81  ILE81       0.0001
     19  N         14.2920    5.6460   40.1560 N.am   82  SER82      -0.1950
     20  CA        15.6430    5.2450   39.7910 C.3    82  SER82       0.1924
     21  C         16.6720    6.2050   40.3820 C.2    82  SER82       0.2314
     22  O         17.8790    6.0450   40.1750 O.2    82  SER82      -0.2863
     23  CB        15.7720    5.2010   38.2680 C.3    82  SER82       0.2116
     24  OG        15.3690    6.4310   37.6890 O.3    82  SER82      -0.2180
     25  N         14.0700    9.7450   45.6430 N.3    86  ALA86      -0.1245
     26  CA        12.8280    9.5800   44.8840 C.3    86  ALA86       0.1562
     27  C         11.8190    8.7350   45.6710 C.2    86  ALA86       0.2260
     28  O         10.6410    8.6570   45.3060 O.2    86  ALA86      -0.2867
     29  CB        13.1090    8.9640   43.5170 C.3    86  ALA86       0.0290
     30  N          8.2750   10.0390   47.3860 N.3    89  ARG89      -0.1245
     31  CA         7.1460   10.3280   46.5000 C.3    89  ARG89       0.1563
     32  C          5.8350   10.3560   47.2920 C.2    89  ARG89       0.2260
     33  O          5.2330    9.3110   47.5600 O.2    89  ARG89      -0.2867
     34  CB         7.0870    9.2980   45.3640 C.3    89  ARG89       0.0307
     35  CG         6.2150    9.6930   44.1790 C.3    89  ARG89       0.0489
     36  CD         6.4010    8.7200   43.0270 C.3    89  ARG89       0.2205
     37  NE         5.5320    9.0140   41.8880 N.pl3  89  ARG89      -0.0865
     38  CZ         5.8800    9.7650   40.8440 C.cat  89  ARG89       0.5346
     39  NH1        7.0850   10.3170   40.7810 N.pl3  89  ARG89       0.1354
     40  NH2        5.0160    9.9650   39.8560 N.pl3  89  ARG89       0.1354
     41  N          7.0420    2.7120   47.4280 N.3   104  TYR104     -0.1241
     42  CA         8.0330    3.4130   46.6180 C.3   104  TYR104      0.1605
     43  C          9.4600    3.1770   47.1170 C.2   104  TYR104      0.2264
     44  O         10.3770    2.9900   46.3150 O.2   104  TYR104     -0.2867
     45  CB         7.7080    4.9110   46.5350 C.3   104  TYR104      0.0534
     46  CG         6.3580    5.2030   45.9100 C.ar  104  TYR104     -0.0201
     47  CD1        6.2000    5.2290   44.5260 C.ar  104  TYR104     -0.0009
     48  CD2        5.2390    5.4460   46.7030 C.ar  104  TYR104     -0.0009
     49  CE1        4.9650    5.4870   43.9450 C.ar  104  TYR104      0.0417
     50  CE2        3.9970    5.7090   46.1320 C.ar  104  TYR104      0.0417
     51  CZ         3.8700    5.7280   44.7530 C.ar  104  TYR104      0.1957
     52  OH         2.6480    5.9860   44.1800 O.3   104  TYR104     -0.2866
     53  N         10.8740   -0.8100   38.9360 N.3   114  GLU114     -0.1245
     54  CA         9.5330   -0.5080   38.4470 C.3   114  GLU114      0.1567
     55  C          9.5520   -0.2110   36.9480 C.2   114  GLU114      0.2260
     56  O         10.3320    0.6210   36.4780 O.2   114  GLU114     -0.2867
     57  CB         8.9200    0.6680   39.2080 C.3   114  GLU114      0.0388
     58  CG         7.4050    0.7590   39.0670 C.3   114  GLU114      0.1160
     59  CD         6.8560    2.1460   39.3520 C.2   114  GLU114      0.3649
     60  OE1        7.6340    3.0420   39.7500 O.co2 114  GLU114     -0.2457
     61  OE2        5.6330    2.3380   39.1730 O.co2 114  GLU114     -0.2457
     62  N          6.6360    0.4270   33.7620 N.3   116  PHE116     -0.1241
     63  CA         5.2360    0.6300   33.3960 C.3   116  PHE116      0.1605
     64  C          5.0800    1.0600   31.9410 C.2   116  PHE116      0.2264
     65  O          5.9630    1.7090   31.3800 O.2   116  PHE116     -0.2867
     66  CB         4.5700    1.6480   34.3360 C.3   116  PHE116      0.0534
     67  CG         5.1780    3.0290   34.2820 C.ar  116  PHE116     -0.0203
     68  CD1        4.6650    3.9990   33.4240 C.ar  116  PHE116     -0.0042
     69  CD2        6.2560    3.3620   35.1000 C.ar  116  PHE116     -0.0042
     70  CE1        5.2250    5.2760   33.3720 C.ar  116  PHE116     -0.0003
     71  CE2        6.8210    4.6350   35.0590 C.ar  116  PHE116     -0.0003
     72  CZ         6.3050    5.5940   34.1940 C.ar  116  PHE116     -0.0000
     73  N          7.3800   15.4720   34.5280 N.3   143  GLU143     -0.1245
     74  CA         8.5310   14.7290   35.0270 C.3   143  GLU143      0.1567
     75  C          9.6550   14.7130   33.9880 C.2   143  GLU143      0.2260
     76  O          9.6280   13.9130   33.0480 O.2   143  GLU143     -0.2867
     77  CB         8.1250   13.3180   35.4670 C.3   143  GLU143      0.0388
     78  CG         7.1340   13.2990   36.6370 C.3   143  GLU143      0.1160
     79  CD         6.8400   11.9010   37.1710 C.2   143  GLU143      0.3649
     80  OE1        6.0030   11.7810   38.0920 O.co2 143  GLU143     -0.2457
     81  OE2        7.4380   10.9190   36.6800 O.co2 143  GLU143     -0.2457
     82  N         12.8630   13.8480   32.1910 N.3   145  GLU145     -0.1245
     83  CA        13.5920   12.5790   32.1780 C.3   145  GLU145      0.1567
     84  C         14.4850   12.3980   30.9550 C.2   145  GLU145      0.2260
     85  O         14.1880   12.9060   29.8720 O.2   145  GLU145     -0.2867
     86  CB        12.6150   11.4040   32.2710 C.3   145  GLU145      0.0388
     87  CG        11.7490   11.4090   33.5200 C.3   145  GLU145      0.1160
     88  CD        10.8180   10.2180   33.6170 C.2   145  GLU145      0.3649
     89  OE1        9.7510   10.3580   34.2520 O.co2 145  GLU145     -0.2457
     90  OE2       11.1490    9.1400   33.0770 O.co2 145  GLU145     -0.2457
     91  N          7.3550   12.9140   31.0930 N.3   164  ASP164     -0.1239
     92  CA         6.3480   11.9820   31.5830 C.3   164  ASP164      0.1674
     93  C          5.3380   12.7750   32.4140 C.2   164  ASP164      0.2266
     94  O          5.5340   12.9980   33.6100 O.2   164  ASP164     -0.2867
     95  CB         7.0120   10.8560   32.3930 C.3   164  ASP164      0.1410
     96  CG         6.0100    9.9860   33.1500 C.2   164  ASP164      0.3668
     97  OD1        4.8200    9.9310   32.7750 O.co2 164  ASP164     -0.2456
     98  OD2        6.4230    9.3500   34.1400 O.co2 164  ASP164     -0.2456
     99  N         -2.6030    9.3920   41.6180 N.3   171  GLU171     -0.1245
    100  CA        -1.6320    8.4140   42.0880 C.3   171  GLU171      0.1567
    101  C         -1.6240    8.3600   43.6190 C.2   171  GLU171      0.2260
    102  O         -1.6500    7.2780   44.2090 O.2   171  GLU171     -0.2867
    103  CB        -0.2430    8.7680   41.5470 C.3   171  GLU171      0.0388
    104  CG         0.8870    7.8660   42.0140 C.3   171  GLU171      0.1160
    105  CD         2.2590    8.3560   41.5720 C.2   171  GLU171      0.3649
    106  OE1        2.3330    9.3150   40.7690 O.co2 171  GLU171     -0.2457
    107  OE2        3.2700    7.7780   42.0260 O.co2 171  GLU171     -0.2457
    108  N         -2.6210    4.5930   38.9240 N.3   178  LEU178     -0.1245
    109  CA        -1.4150    5.0000   38.2020 C.3   178  LEU178      0.1561
    110  C         -1.5970    5.0200   36.6700 C.2   178  LEU178      0.2260
    111  O         -1.2420    6.0140   36.0320 O.2   178  LEU178     -0.2867
    112  CB        -0.2160    4.1360   38.6130 C.3   178  LEU178      0.0270
    113  CG         1.1910    4.6230   38.2560 C.3   178  LEU178      0.0019
    114  CD1        1.7560    5.5360   39.3330 C.3   178  LEU178      0.0001
    115  CD2        2.1150    3.4310   38.0340 C.3   178  LEU178      0.0001
    116  N         -1.2180    8.3100   34.1920 N.3   182  LYS182     -0.1245
    117  CA        -0.0590    8.3330   33.2940 C.3   182  LYS182      0.1561
    118  C         -0.4100    8.2480   31.8080 C.2   182  LYS182      0.2260
    119  O          0.3060    8.8010   30.9750 O.2   182  LYS182     -0.2867
    120  CB         0.9180    7.2050   33.6520 C.3   182  LYS182      0.0271
    121  CG         1.6180    7.3500   35.0010 C.3   182  LYS182      0.0035
    122  CD         2.8660    8.2100   34.9070 C.3   182  LYS182      0.0206
    123  CE         3.7260    8.0550   36.1480 C.3   182  LYS182      0.1093
    124  NZ         4.9400    8.9180   36.0980 N.3   182  LYS182     -0.1314
    125  N         13.0890    7.7210   34.4270 N.3   255  GLY255     -0.1210
    126  CA        12.6950    8.2040   35.7550 C.3   255  GLY255      0.1956
    127  C         13.1770    9.6130   36.0500 C.2   255  GLY255      0.2612
    128  O         14.1710   10.0700   35.4790 O.2   255  GLY255     -0.2717
    129  N         12.4680   10.2980   36.9460 N.am  256  THR256     -0.1952
    130  CA        12.7630   11.6970   37.2690 C.3   256  THR256      0.1897
    131  C         13.3760   11.8900   38.6600 C.2   256  THR256      0.2313
    132  O         13.2840   11.0130   39.5220 O.2   256  THR256     -0.2863
    133  CB        11.5040   12.5950   37.1220 C.3   256  THR256      0.1794
    134  OG1       11.8900   13.9740   37.1440 O.3   256  THR256     -0.2208
    135  CG2       10.4910   12.3260   38.2380 C.3   256  THR256      0.0378
@<TRIPOS>BOND
     1    85    84    2
     2    84    83    1
     3   119   118    2
     4    91    92    1
     5    65    64    2
     6    92    95    1
     7    92    93    1
     8   118   117    1
     9    64    63    1
    10    83    82    1
    11    83    86    1
    12    86    87    1
    13    95    96    1
    14    93    94    2
    15    97    96   ar
    16    76    75    2
    17    90    88   ar
    18    96    98   ar
    19   117   120    1
    20   117   116    1
    21    70    68   ar
    22    70    72   ar
    23    63    62    1
    24    63    66    1
    25    68    67   ar
    26     1     2    1
    27    87    88    1
    28    88    89   ar
    29   120   121    1
    30    75    74    1
    31     5     2    1
    32     5     6    1
    33    72    71   ar
    34    67    66    1
    35    67    69   ar
    36   125   126    1
    37    73    74    1
    38     2     3    1
    39   122   121    1
    40   122   123    1
    41    74    77    1
    42    71    69   ar
    43    77    78    1
    44   128   127    2
    45     4     3    2
    46   126   127    1
    47     3     7   am
    48   111   110    2
    49   127   129   am
    50   124   123    1
    51    56    55    2
    52    78    79    1
    53   110   109    1
    54    81    79   ar
    55     7     8    1
    56   129   130    1
    57    55    54    1
    58   133   134    1
    59   133   130    1
    60   133   135    1
    61    79    80   ar
    62   130   131    1
    63    24    23    1
    64   115   113    1
    65     8     9    1
    66   109   112    1
    67   109   108    1
    68   113   112    1
    69   113   114    1
    70    23    20    1
    71    54    53    1
    72    54    57    1
    73   131   132    2
    74    58    57    1
    75    58    59    1
    76    61    59   ar
    77     9    10    2
    78     9    11   am
    79    59    60   ar
    80    20    19    1
    81    20    21    1
    82    40    38    1
    83    11    12    1
    84    19    13   am
    85    22    21    2
    86   106   105   ar
    87    39    38    1
    88    38    37    2
    89    13    12    1
    90    13    14    2
    91    12    15    1
    92   103   104    1
    93   103   100    1
    94   105   104    1
    95   105   107   ar
    96    99   100    1
    97    37    36    1
    98   100   101    1
    99    15    16    1
   100    15    17    1
   101    16    18    1
   102    36    35    1
   103    29    26    1
   104   101   102    2
   105    49    47   ar
   106    49    51   ar
   107    35    34    1
   108    52    51    1
   109    47    46   ar
   110    51    50   ar
   111    26    25    1
   112    26    27    1
   113    28    27    2
   114    34    31    1
   115    46    45    1
   116    46    48   ar
   117    50    48   ar
   118    44    43    2
   119    31    32    1
   120    31    30    1
   121    45    42    1
   122    42    43    1
   123    42    41    1
   124    32    33    2
