@<TRIPOS>MOLECULE
tmp/2q1dA00.pdb
 119 110 0 0 0
SMALL
GASTEIGER

@<TRIPOS>ATOM
      1  N         10.1660    3.8710   33.4140 N.3    79  SER79      -0.1202
      2  CA        10.7860    3.3480   34.6220 C.3    79  SER79       0.2020
      3  C         10.4700    4.2570   35.8190 C.2    79  SER79       0.2619
      4  O         10.3380    5.4850   35.6750 O.2    79  SER79      -0.2717
      5  CB        12.2960    3.2610   34.4320 C.3    79  SER79       0.2103
      6  OG        12.7950    2.0190   34.8910 O.3    79  SER79      -0.2182
      7  N         10.3570    3.6460   36.9980 N.am   80  GLY80      -0.1942
      8  CA        10.0480    4.3710   38.2330 C.3    80  GLY80       0.2014
      9  C         11.0840    4.2340   39.3380 C.2    80  GLY80       0.2639
     10  O         11.6640    3.1570   39.5360 O.2    80  GLY80      -0.2714
     11  N         11.3000    5.3380   40.0530 N.am   81  ILE81      -0.1963
     12  CA        12.1610    5.4100   41.2520 C.3    81  ILE81       0.1727
     13  C         13.5820    4.8910   41.0020 C.2    81  ILE81       0.2616
     14  O         14.0400    3.9090   41.5870 O.2    81  ILE81      -0.2715
     15  CB        11.4980    4.7720   42.4990 C.3    81  ILE81       0.0290
     16  CG1       10.1000    5.3500   42.7160 C.3    81  ILE81       0.0022
     17  CG2       12.2770    5.1100   43.7400 C.3    81  ILE81       0.0023
     18  CD1        9.0010    4.6740   41.9230 C.3    81  ILE81       0.0001
     19  N         14.2720    5.5780   40.1120 N.am   82  SER82      -0.1950
     20  CA        15.6020    5.1830   39.7290 C.3    82  SER82       0.1924
     21  C         16.6520    6.1140   40.3480 C.2    82  SER82       0.2314
     22  O         17.8510    5.9950   40.0540 O.2    82  SER82      -0.2863
     23  CB        15.6880    5.1530   38.2060 C.3    82  SER82       0.2116
     24  OG        14.8080    6.1110   37.6440 O.3    82  SER82      -0.2180
     25  N          7.0280    2.6810   47.4430 N.3    94  TYR94      -0.1241
     26  CA         8.0790    3.3290   46.6590 C.3    94  TYR94       0.1605
     27  C          9.4690    3.0210   47.1860 C.2    94  TYR94       0.2264
     28  O         10.3870    2.7760   46.4040 O.2    94  TYR94      -0.2867
     29  CB         7.8510    4.8470   46.5640 C.3    94  TYR94       0.0534
     30  CG         6.5410    5.1970   45.9020 C.ar   94  TYR94      -0.0201
     31  CD1        6.4460    5.3170   44.5170 C.ar   94  TYR94      -0.0009
     32  CD2        5.3890    5.3780   46.6570 C.ar   94  TYR94      -0.0009
     33  CE1        5.2410    5.6220   43.9080 C.ar   94  TYR94       0.0417
     34  CE2        4.1810    5.6820   46.0600 C.ar   94  TYR94       0.0417
     35  CZ         4.1100    5.8040   44.6870 C.ar   94  TYR94       0.1957
     36  OH         2.8970    6.1030   44.1020 O.3    94  TYR94      -0.2866
     37  N         10.7540   -0.9020   38.9650 N.3   104  GLU104     -0.1245
     38  CA         9.4290   -0.6010   38.4250 C.3   104  GLU104      0.1567
     39  C          9.5170   -0.3280   36.9240 C.2   104  GLU104      0.2260
     40  O         10.4260    0.3850   36.4540 O.2   104  GLU104     -0.2867
     41  CB         8.7930    0.6010   39.1260 C.3   104  GLU104      0.0388
     42  CG         7.3390    0.8760   38.6800 C.3   104  GLU104      0.1160
     43  CD         6.7640    2.1910   39.2050 C.2   104  GLU104      0.3649
     44  OE1        7.4920    2.9470   39.8900 O.co2 104  GLU104     -0.2457
     45  OE2        5.5680    2.4650   38.9280 O.co2 104  GLU104     -0.2457
     46  N          6.5470    0.4890   33.7460 N.3   106  PHE106     -0.1241
     47  CA         5.1380    0.6720   33.3880 C.3   106  PHE106      0.1605
     48  C          4.9710    1.0490   31.9250 C.2   106  PHE106      0.2264
     49  O          5.8810    1.6120   31.3020 O.2   106  PHE106     -0.2867
     50  CB         4.4470    1.7120   34.3010 C.3   106  PHE106      0.0534
     51  CG         5.0380    3.1020   34.1990 C.ar  106  PHE106     -0.0203
     52  CD1        4.5240    4.0230   33.2980 C.ar  106  PHE106     -0.0042
     53  CD2        6.1320    3.4740   34.9940 C.ar  106  PHE106     -0.0042
     54  CE1        5.0910    5.2970   33.2010 C.ar  106  PHE106     -0.0003
     55  CE2        6.7040    4.7340   34.9030 C.ar  106  PHE106     -0.0003
     56  CZ         6.1870    5.6510   34.0100 C.ar  106  PHE106     -0.0000
     57  N          7.3320   15.3560   34.4470 N.3   133  GLU133     -0.1245
     58  CA         8.4750   14.5860   34.9360 C.3   133  GLU133      0.1567
     59  C          9.5860   14.5400   33.8720 C.2   133  GLU133      0.2260
     60  O          9.5170   13.7600   32.9200 O.2   133  GLU133     -0.2867
     61  CB         8.0540   13.1750   35.3670 C.3   133  GLU133      0.0388
     62  CG         6.8800   13.0830   36.3690 C.3   133  GLU133      0.1160
     63  CD         6.7800   11.7110   37.0730 C.2   133  GLU133      0.3649
     64  OE1        5.9950   11.5770   38.0330 O.co2 133  GLU133     -0.2457
     65  OE2        7.4890   10.7560   36.6850 O.co2 133  GLU133     -0.2457
     66  N         12.8770   13.5880   32.0980 N.3   135  GLU135     -0.1245
     67  CA        13.6180   12.3320   32.1540 C.3   135  GLU135      0.1567
     68  C         14.4740   12.1250   30.9350 C.2   135  GLU135      0.2260
     69  O         14.1180   12.5700   29.8510 O.2   135  GLU135     -0.2867
     70  CB        12.6350   11.1740   32.2700 C.3   135  GLU135      0.0388
     71  CG        11.5860   11.3830   33.3450 C.3   135  GLU135      0.1160
     72  CD        10.7320   10.1640   33.5990 C.2   135  GLU135      0.3649
     73  OE1        9.7690   10.2830   34.4000 O.co2 135  GLU135     -0.2457
     74  OE2       11.0230    9.0890   33.0140 O.co2 135  GLU135     -0.2457
     75  N          7.4250   12.7220   31.0000 N.3   154  ASP154     -0.1239
     76  CA         6.4690   11.7830   31.5560 C.3   154  ASP154      0.1674
     77  C          5.4070   12.5440   32.3660 C.2   154  ASP154      0.2266
     78  O          5.4000   12.5300   33.5890 O.2   154  ASP154     -0.2867
     79  CB         7.2320   10.7630   32.4130 C.3   154  ASP154      0.1410
     80  CG         6.3220    9.7780   33.1530 C.2   154  ASP154      0.3668
     81  OD1        5.1560    9.5210   32.7400 O.co2 154  ASP154     -0.2456
     82  OD2        6.8040    9.2420   34.1790 O.co2 154  ASP154     -0.2456
     83  N         -2.6110    9.3020   41.4640 N.3   161  GLU161     -0.1245
     84  CA        -1.7130    8.2390   41.8810 C.3   161  GLU161      0.1567
     85  C         -1.6080    8.1300   43.4010 C.2   161  GLU161      0.2260
     86  O         -1.6830    7.0340   43.9560 O.2   161  GLU161     -0.2867
     87  CB        -0.3300    8.4580   41.2710 C.3   161  GLU161      0.0388
     88  CG         0.7730    7.6160   41.8730 C.3   161  GLU161      0.1160
     89  CD         2.1450    8.0420   41.3920 C.2   161  GLU161      0.3649
     90  OE1        2.2300    8.9000   40.4840 O.co2 161  GLU161     -0.2457
     91  OE2        3.1470    7.5150   41.9160 O.co2 161  GLU161     -0.2457
     92  N         -2.4480    4.2830   38.8350 N.3   168  LEU168     -0.1245
     93  CA        -1.2450    4.6790   38.1100 C.3   168  LEU168      0.1561
     94  C         -1.4460    4.7330   36.5810 C.2   168  LEU168      0.2260
     95  O         -1.0370    5.7080   35.9460 O.2   168  LEU168     -0.2867
     96  CB        -0.0480    3.8030   38.4790 C.3   168  LEU168      0.0270
     97  CG         1.3270    4.3510   38.0540 C.3   168  LEU168      0.0019
     98  CD1        1.7620    5.4710   39.0100 C.3   168  LEU168      0.0001
     99  CD2        2.4210    3.2470   37.9370 C.3   168  LEU168      0.0001
    100  N         -1.1350    7.9700   34.1550 N.3   172  LYS172     -0.1245
    101  CA         0.0130    8.0130   33.2310 C.3   172  LYS172      0.1561
    102  C         -0.3140    8.0350   31.7240 C.2   172  LYS172      0.2260
    103  O          0.4780    8.5550   30.9310 O.2   172  LYS172     -0.2867
    104  CB         0.9850    6.8600   33.5320 C.3   172  LYS172      0.0271
    105  CG         1.7770    6.9940   34.8390 C.3   172  LYS172      0.0035
    106  CD         2.9480    7.9510   34.6980 C.3   172  LYS172      0.0206
    107  CE         3.7770    7.9410   35.9430 C.3   172  LYS172      0.1093
    108  NZ         4.9820    8.7790   35.7950 N.3   172  LYS172     -0.1314
    109  N         12.8930    7.3970   34.2010 N.3   245  GLY245     -0.1210
    110  CA        12.5120    7.9230   35.5240 C.3   245  GLY245      0.1956
    111  C         13.0640    9.3210   35.8430 C.2   245  GLY245      0.2612
    112  O         14.1340    9.7060   35.3540 O.2   245  GLY245     -0.2717
    113  N         12.3350   10.0790   36.6690 N.am  246  THR246     -0.1952
    114  CA        12.6890   11.4700   36.9650 C.3   246  THR246      0.1897
    115  C         13.2930   11.6520   38.3450 C.2   246  THR246      0.2313
    116  O         13.0020   10.8770   39.2590 O.2   246  THR246     -0.2863
    117  CB        11.4670   12.4090   36.8700 C.3   246  THR246      0.1794
    118  OG1       11.9170   13.7620   36.8190 O.3   246  THR246     -0.2208
    119  CG2       10.5570   12.2540   38.0750 C.3   246  THR246      0.0378
@<TRIPOS>BOND
     1    69    68    2
     2   103   102    2
     3    68    67    1
     4    75    76    1
     5    49    48    2
     6    76    77    1
     7    76    79    1
     8   102   101    1
     9    48    47    1
    10    66    67    1
    11    67    70    1
    12    70    71    1
    13    77    78    2
    14    79    80    1
    15    81    80   ar
    16    60    59    2
    17    74    72   ar
    18    80    82   ar
    19    54    52   ar
    20    54    56   ar
    21   101   104    1
    22   101   100    1
    23    52    51   ar
    24    71    72    1
    25    47    46    1
    26    47    50    1
    27     1     2    1
    28   104   105    1
    29    72    73   ar
    30    59    58    1
    31    56    55   ar
    32    51    50    1
    33    51    53   ar
    34   109   110    1
    35     5     2    1
    36     5     6    1
    37    57    58    1
    38     2     3    1
    39   106   105    1
    40   106   107    1
    41    55    53   ar
    42    58    61    1
    43   112   111    2
    44    61    62    1
    45   110   111    1
    46     4     3    2
    47   108   107    1
    48     3     7   am
    49   111   113   am
    50    95    94    2
    51    62    63    1
    52    40    39    2
    53    94    93    1
    54   113   114    1
    55    65    63   ar
    56   118   117    1
    57   117   114    1
    58   117   119    1
    59    39    38    1
    60   114   115    1
    61     7     8    1
    62    63    64   ar
    63    24    23    1
    64    99    97    1
    65    97    96    1
    66    97    98    1
    67    93    96    1
    68    93    92    1
    69    23    20    1
    70     8     9    1
    71   115   116    2
    72    38    37    1
    73    38    41    1
    74    42    41    1
    75    42    43    1
    76    45    43   ar
    77    43    44   ar
    78     9    10    2
    79     9    11   am
    80    20    19    1
    81    20    21    1
    82    11    12    1
    83    22    21    2
    84    19    13   am
    85    90    89   ar
    86    13    12    1
    87    13    14    2
    88    12    15    1
    89    87    88    1
    90    87    84    1
    91    89    88    1
    92    89    91   ar
    93    83    84    1
    94    84    85    1
    95    18    16    1
    96    15    16    1
    97    15    17    1
    98    85    86    2
    99    33    31   ar
   100    33    35   ar
   101    36    35    1
   102    31    30   ar
   103    35    34   ar
   104    30    29    1
   105    30    32   ar
   106    34    32   ar
   107    28    27    2
   108    29    26    1
   109    26    27    1
   110    26    25    1
