@<TRIPOS>MOLECULE
tmp/2q1hA00.pdb
 193 180 0 0 0
SMALL
GASTEIGER

@<TRIPOS>ATOM
      1  N         -7.3200  -39.7780  -18.2540 N.3    30  LEU30      -0.1245
      2  CA        -6.8020  -38.4910  -17.7920 C.3    30  LEU30       0.1561
      3  C         -5.6070  -38.0320  -18.6300 C.2    30  LEU30       0.2260
      4  O         -5.5010  -36.8510  -18.9750 O.2    30  LEU30      -0.2867
      5  CB        -6.4320  -38.5680  -16.2980 C.3    30  LEU30       0.0270
      6  CG        -7.5920  -38.8960  -15.3370 C.3    30  LEU30       0.0019
      7  CD1       -7.1350  -38.7200  -13.8870 C.3    30  LEU30       0.0001
      8  CD2       -8.7810  -37.9740  -15.6170 C.3    30  LEU30       0.0001
      9  N         -6.8990  -36.7310  -21.9010 N.3    33  LEU33      -0.1231
     10  CA        -7.4920  -35.4030  -21.7660 C.3    33  LEU33       0.1693
     11  C         -6.3900  -34.3540  -21.6040 C.2    33  LEU33       0.2592
     12  O         -6.5140  -33.2350  -22.1030 O.2    33  LEU33      -0.2718
     13  CB        -8.4540  -35.3450  -20.5660 C.3    33  LEU33       0.0284
     14  CG        -9.7640  -36.1380  -20.6790 C.3    33  LEU33       0.0019
     15  CD1      -10.6200  -35.9140  -19.4250 C.3    33  LEU33       0.0001
     16  CD2      -10.5340  -35.6940  -21.9060 C.3    33  LEU33       0.0001
     17  N         -5.3140  -34.7090  -20.9040 N.am   34  ASN34      -0.1974
     18  CA        -4.2100  -33.7720  -20.7200 C.3    34  ASN34       0.1688
     19  C         -3.5350  -33.5030  -22.0630 C.2    34  ASN34       0.2292
     20  O         -3.1360  -32.3750  -22.3490 O.2    34  ASN34      -0.2864
     21  CB        -3.2030  -34.3190  -19.7020 C.3    34  ASN34       0.1181
     22  CG        -3.7280  -34.2390  -18.2770 C.2    34  ASN34       0.2629
     23  OD1       -4.7650  -33.4390  -18.0870 O.2    34  ASN34      -0.2716
     24  ND2       -3.2060  -34.8810  -17.3590 N.am   34  ASN34      -0.0877
     25  N         -5.0280  -33.6760  -24.9330 N.3    36  LEU36      -0.1231
     26  CA        -5.9870  -32.8630  -25.6710 C.3    36  LEU36       0.1693
     27  C         -5.8390  -31.4070  -25.2300 C.2    36  LEU36       0.2591
     28  O         -5.8340  -30.4920  -26.0590 O.2    36  LEU36      -0.2718
     29  CB        -7.4170  -33.3440  -25.3970 C.3    36  LEU36       0.0284
     30  CG        -8.5680  -32.4780  -25.9230 C.3    36  LEU36       0.0019
     31  CD1       -8.4500  -32.3090  -27.4280 C.3    36  LEU36       0.0001
     32  CD2       -9.8980  -33.1170  -25.5480 C.3    36  LEU36       0.0001
     33  N         -5.7160  -31.2060  -23.9180 N.am   37  ALA37      -0.1980
     34  CA        -5.5740  -29.8680  -23.3400 C.3    37  ALA37       0.1597
     35  C         -4.3460  -29.1510  -23.8960 C.2    37  ALA37       0.2287
     36  O         -4.3770  -27.9420  -24.1380 O.2    37  ALA37      -0.2864
     37  CB        -5.4760  -29.9640  -21.8250 C.3    37  ALA37       0.0319
     38  N         -5.1640  -28.0080  -27.2510 N.3    40  GLN40      -0.1245
     39  CA        -6.1100  -26.9070  -27.1520 C.3    40  GLN40       0.1566
     40  C         -5.4150  -25.6260  -26.7010 C.2    40  GLN40       0.2260
     41  O         -5.8010  -24.5310  -27.1070 O.2    40  GLN40      -0.2867
     42  CB        -7.2450  -27.2590  -26.1850 C.3    40  GLN40       0.0367
     43  CG        -8.4040  -27.9820  -26.8540 C.3    40  GLN40       0.0905
     44  CD        -9.5340  -28.2910  -25.8910 C.2    40  GLN40       0.2608
     45  OE1       -9.7610  -27.5560  -24.9270 O.2    40  GLN40      -0.2717
     46  NE2      -10.2630  -29.3750  -26.1570 N.am   40  GLN40      -0.0878
     47  N         -7.0130  -20.3980  -18.6280 N.3    70  TRP70      -0.1227
     48  CA        -7.0710  -21.4960  -19.5930 C.3    70  TRP70       0.1737
     49  C         -8.0790  -22.5960  -19.2390 C.2    70  TRP70       0.2595
     50  O         -8.7860  -23.0910  -20.1170 O.2    70  TRP70      -0.2718
     51  CB        -5.6810  -22.1130  -19.8300 C.3    70  TRP70       0.0564
     52  CG        -5.1160  -22.9050  -18.6960 C.ar   70  TRP70       0.0003
     53  CD1       -4.3260  -22.4430  -17.6830 C.ar   70  TRP70       0.0946
     54  CD2       -5.2860  -24.3090  -18.4650 C.ar   70  TRP70       0.0152
     55  NE1       -3.9890  -23.4730  -16.8370 N.ar   70  TRP70      -0.2442
     56  CE2       -4.5670  -24.6290  -17.2920 C.ar   70  TRP70       0.0810
     57  CE3       -5.9760  -25.3290  -19.1370 C.ar   70  TRP70       0.0012
     58  CZ2       -4.5190  -25.9300  -16.7720 C.ar   70  TRP70       0.0191
     59  CZ3       -5.9280  -26.6260  -18.6190 C.ar   70  TRP70       0.0001
     60  CH2       -5.2050  -26.9110  -17.4500 C.ar   70  TRP70       0.0015
     61  N         -8.1630  -22.9710  -17.9670 N.am   71  MET71      -0.1979
     62  CA        -9.0970  -24.0230  -17.5690 C.3    71  MET71       0.1605
     63  C        -10.5490  -23.5920  -17.7660 C.2    71  MET71       0.2287
     64  O        -11.3860  -24.3780  -18.2200 O.2    71  MET71      -0.2864
     65  CB        -8.8620  -24.4210  -16.1060 C.3    71  MET71       0.0413
     66  CG        -9.7820  -25.5300  -15.6010 C.3    71  MET71       0.0598
     67  SD        -9.4910  -27.1300  -16.4330 S.3    71  MET71      -0.1393
     68  CE        -8.0460  -27.6850  -15.5690 C.3    71  MET71       0.0692
     69  N        -11.3160  -23.6400  -21.5730 N.3    74  MET74      -0.1230
     70  CA       -11.5130  -24.9860  -22.0970 C.3    74  MET74       0.1702
     71  C        -12.7930  -25.6390  -21.5880 C.2    74  MET74       0.2592
     72  O        -13.4660  -26.3460  -22.3380 O.2    74  MET74      -0.2718
     73  CB       -10.2920  -25.8530  -21.7910 C.3    74  MET74       0.0401
     74  CG        -9.0500  -25.3870  -22.5560 C.3    74  MET74       0.0596
     75  SD        -7.5990  -26.4110  -22.3080 S.3    74  MET74      -0.1393
     76  CE        -6.2870  -25.3070  -22.9280 C.3    74  MET74       0.0692
     77  N        -13.1350  -25.3950  -20.3240 N.am   75  ALA75      -0.1980
     78  CA       -14.3550  -25.9540  -19.7470 C.3    75  ALA75       0.1597
     79  C        -15.5910  -25.3140  -20.3840 C.2    75  ALA75       0.2287
     80  O        -16.5830  -25.9890  -20.6390 O.2    75  ALA75      -0.2864
     81  CB       -14.3760  -25.7360  -18.2210 C.3    75  ALA75       0.0319
     82  N        -15.9680  -26.6250  -23.8590 N.3    78  LEU78      -0.1245
     83  CA       -16.4370  -28.0080  -23.7450 C.3    78  LEU78       0.1561
     84  C        -17.9500  -27.9700  -23.5610 C.2    78  LEU78       0.2260
     85  O        -18.6870  -28.7450  -24.1710 O.2    78  LEU78      -0.2867
     86  CB       -15.7990  -28.6960  -22.5340 C.3    78  LEU78       0.0270
     87  CG       -16.4430  -30.0230  -22.1040 C.3    78  LEU78       0.0019
     88  CD1      -16.3370  -31.0400  -23.2340 C.3    78  LEU78       0.0001
     89  CD2      -15.7500  -30.5420  -20.8480 C.3    78  LEU78       0.0001
     90  N        -19.5650  -27.2460  -26.9770 N.3    81  ARG81      -0.1245
     91  CA       -19.5350  -28.3970  -27.8790 C.3    81  ARG81       0.1563
     92  C        -20.5200  -29.4790  -27.4460 C.2    81  ARG81       0.2260
     93  O        -21.1950  -30.0820  -28.2770 O.2    81  ARG81      -0.2867
     94  CB       -18.1290  -28.9970  -27.9500 C.3    81  ARG81       0.0307
     95  CG       -17.0670  -28.0710  -28.5270 C.3    81  ARG81       0.0489
     96  CD       -15.7990  -28.8420  -28.8580 C.3    81  ARG81       0.2205
     97  NE       -15.1550  -29.4350  -27.6850 N.pl3  81  ARG81      -0.0865
     98  CZ       -14.3860  -28.7720  -26.8250 C.cat  81  ARG81       0.5346
     99  NH1      -14.1560  -27.4780  -26.9920 N.pl3  81  ARG81       0.1354
    100  NH2      -13.8270  -29.4140  -25.8060 N.pl3  81  ARG81       0.1354
    101  N        -15.5450  -33.7690  -25.4220 N.3    93  PHE93      -0.1241
    102  CA       -14.1960  -33.2360  -25.3090 C.3    93  PHE93       0.1605
    103  C        -13.5790  -33.0060  -26.6870 C.2    93  PHE93       0.2264
    104  O        -12.9730  -31.9640  -26.9460 O.2    93  PHE93      -0.2867
    105  CB       -13.3130  -34.1810  -24.4930 C.3    93  PHE93       0.0534
    106  CG       -13.5820  -34.1360  -23.0150 C.ar   93  PHE93      -0.0203
    107  CD1      -14.3240  -35.1360  -22.3950 C.ar   93  PHE93      -0.0042
    108  CD2      -13.0760  -33.0920  -22.2370 C.ar   93  PHE93      -0.0042
    109  CE1      -14.5610  -35.1040  -21.0170 C.ar   93  PHE93      -0.0003
    110  CE2      -13.3050  -33.0480  -20.8590 C.ar   93  PHE93      -0.0003
    111  CZ       -14.0500  -34.0570  -20.2450 C.ar   93  PHE93      -0.0000
    112  N        -13.2520  -38.9420  -11.9080 N.3   109  MET109     -0.1245
    113  CA       -13.7020  -37.5740  -11.6370 C.3   109  MET109      0.1570
    114  C        -15.1300  -37.3390  -12.1350 C.2   109  MET109      0.2261
    115  O        -15.4410  -36.3100  -12.7400 O.2   109  MET109     -0.2867
    116  CB       -12.7450  -36.5520  -12.2630 C.3   109  MET109      0.0387
    117  CG       -12.5040  -36.7100  -13.7570 C.3   109  MET109      0.0595
    118  SD       -11.5240  -35.3370  -14.4020 S.3   109  MET109     -0.1393
    119  CE       -12.7710  -34.1250  -14.7330 C.3   109  MET109      0.0692
    120  N        -16.7580  -33.9560  -11.1750 N.3   112  LEU112     -0.1245
    121  CA       -16.2710  -32.8140  -11.9470 C.3   112  LEU112      0.1561
    122  C        -16.8790  -32.8670  -13.3490 C.2   112  LEU112      0.2260
    123  O        -17.2040  -31.8320  -13.9350 O.2   112  LEU112     -0.2867
    124  CB       -14.7390  -32.8240  -12.0270 C.3   112  LEU112      0.0270
    125  CG       -14.0100  -32.5330  -10.7090 C.3   112  LEU112      0.0019
    126  CD1      -12.5070  -32.5790  -10.9230 C.3   112  LEU112      0.0001
    127  CD2      -14.4180  -31.1600  -10.1910 C.3   112  LEU112      0.0001
    128  N        -19.1860  -30.0010  -15.2150 N.3   116  MET116     -0.1245
    129  CA       -18.9860  -29.4690  -16.5520 C.3   116  MET116      0.1570
    130  C        -20.2270  -29.6930  -17.4090 C.2   116  MET116      0.2261
    131  O        -20.5880  -28.8400  -18.2140 O.2   116  MET116     -0.2867
    132  CB       -17.7520  -30.1060  -17.1970 C.3   116  MET116      0.0387
    133  CG       -16.4590  -29.7010  -16.4930 C.3   116  MET116      0.0595
    134  SD       -14.9730  -30.2850  -17.3160 S.3   116  MET116     -0.1393
    135  CE       -14.9790  -31.9440  -16.8460 C.3   116  MET116      0.0692
    136  N        -11.8970  -28.0770  -10.7890 N.3   199  LEU199     -0.1245
    137  CA       -11.1450  -28.6370  -11.9070 C.3   199  LEU199      0.1561
    138  C         -9.6450  -28.4430  -11.6930 C.2   199  LEU199      0.2260
    139  O         -8.8610  -29.3710  -11.8690 O.2   199  LEU199     -0.2867
    140  CB       -11.5670  -27.9720  -13.2230 C.3   199  LEU199      0.0270
    141  CG       -13.0260  -28.1880  -13.6570 C.3   199  LEU199      0.0019
    142  CD1      -13.2870  -27.4120  -14.9450 C.3   199  LEU199      0.0001
    143  CD2      -13.3010  -29.6860  -13.8630 C.3   199  LEU199      0.0001
    144  N         -8.0180  -30.7680   -8.9280 N.3   202  PHE202     -0.1227
    145  CA        -7.6750  -32.1200   -9.3620 C.3   202  PHE202      0.1736
    146  C         -6.5250  -32.0890  -10.3730 C.2   202  PHE202      0.2595
    147  O         -5.6890  -32.9910  -10.3940 O.2   202  PHE202     -0.2718
    148  CB        -8.9000  -32.8210   -9.9630 C.3   202  PHE202      0.0547
    149  CG        -8.7100  -34.3080  -10.1660 C.ar  202  PHE202     -0.0202
    150  CD1       -8.2680  -35.1170   -9.1160 C.ar  202  PHE202     -0.0042
    151  CD2       -8.9790  -34.8980  -11.3980 C.ar  202  PHE202     -0.0042
    152  CE1       -8.0980  -36.4940   -9.2890 C.ar  202  PHE202     -0.0003
    153  CE2       -8.8140  -36.2780  -11.5840 C.ar  202  PHE202     -0.0003
    154  CZ        -8.3740  -37.0750  -10.5310 C.ar  202  PHE202     -0.0000
    155  N         -6.4860  -31.0500  -11.2050 N.am  203  CYS203     -0.1970
    156  CA        -5.4320  -30.8890  -12.2060 C.3   203  CYS203      0.1712
    157  C         -4.0770  -30.7160  -11.5010 C.2   203  CYS203      0.2296
    158  O         -3.0950  -31.3830  -11.8330 O.2   203  CYS203     -0.2864
    159  CB        -5.7340  -29.6650  -13.0820 C.3   203  CYS203      0.0983
    160  SG        -4.4670  -29.2640  -14.3170 S.3   203  CYS203     -0.0798
    161  N         -3.0410  -34.1110   -9.5820 N.3   206  THR206     -0.1218
    162  CA        -2.5020  -35.1600  -10.4410 C.3   206  THR206      0.1862
    163  C         -1.2000  -34.6930  -11.0930 C.2   206  THR206      0.2287
    164  O         -0.3180  -35.5000  -11.3890 O.2   206  THR206     -0.2866
    165  CB        -3.5270  -35.5860  -11.5240 C.3   206  THR206      0.1770
    166  OG1       -3.9690  -34.4360  -12.2560 O.3   206  THR206     -0.2211
    167  CG2       -4.7200  -36.2660  -10.8720 C.3   206  THR206      0.0375
    168  N         -0.0160  -40.3160  -14.5640 N.3   215  VAL215     -0.1245
    169  CA        -0.9360  -39.4680  -15.3040 C.3   215  VAL215      0.1561
    170  C         -0.0360  -38.4970  -16.0520 C.2   215  VAL215      0.2260
    171  O          0.6090  -37.6320  -15.4560 O.2   215  VAL215     -0.2867
    172  CB        -1.8960  -38.6920  -14.3800 C.3   215  VAL215      0.0252
    173  CG1       -2.7090  -37.6930  -15.2010 C.3   215  VAL215      0.0019
    174  CG2       -2.8320  -39.6650  -13.6720 C.3   215  VAL215      0.0019
    175  N          1.2320  -35.4850  -18.6210 N.3   217  PHE217     -0.1241
    176  CA         0.9280  -34.0990  -18.9820 C.3   217  PHE217      0.1605
    177  C          1.9310  -33.6920  -20.0530 C.2   217  PHE217      0.2264
    178  O          3.1270  -33.9320  -19.9010 O.2   217  PHE217     -0.2867
    179  CB         1.1130  -33.1460  -17.7950 C.3   217  PHE217      0.0534
    180  CG         0.0520  -33.2590  -16.7340 C.ar  217  PHE217     -0.0203
    181  CD1        0.0530  -34.3170  -15.8320 C.ar  217  PHE217     -0.0042
    182  CD2       -0.9340  -32.2830  -16.6210 C.ar  217  PHE217     -0.0042
    183  CE1       -0.9140  -34.3980  -14.8250 C.ar  217  PHE217     -0.0003
    184  CE2       -1.8990  -32.3580  -15.6220 C.ar  217  PHE217     -0.0003
    185  CZ        -1.8880  -33.4180  -14.7220 C.ar  217  PHE217     -0.0000
    186  N          1.5760  -28.0570  -21.2700 N.3   221  LEU221     -0.1245
    187  CA         0.8130  -27.8730  -20.0400 C.3   221  LEU221      0.1561
    188  C          1.6990  -27.7820  -18.8040 C.2   221  LEU221      0.2260
    189  O          1.4610  -26.9580  -17.9180 O.2   221  LEU221     -0.2867
    190  CB        -0.1760  -29.0290  -19.8640 C.3   221  LEU221      0.0270
    191  CG        -1.6680  -28.6980  -19.7940 C.3   221  LEU221      0.0019
    192  CD1       -2.1080  -28.0310  -21.0850 C.3   221  LEU221      0.0001
    193  CD2       -2.4620  -29.9730  -19.5620 C.3   221  LEU221      0.0001
@<TRIPOS>BOND
     1    96    95    1
     2    96    97    1
     3    95    94    1
     4    93    92    2
     5    94    91    1
     6    91    92    1
     7    91    90    1
     8    97    98    2
     9    31    30    1
    10    38    39    1
    11    39    40    1
    12    39    42    1
    13    41    40    2
    14    99    98    1
    15   104   103    2
    16    43    42    1
    17    43    44    1
    18    98   100    1
    19   103   102    1
    20    46    44   am
    21    28    27    2
    22    30    32    1
    23    30    29    1
    24    44    45    2
    25    26    29    1
    26    26    27    1
    27    26    25    1
    28   101   102    1
    29   102   105    1
    30    27    33   am
    31   105   106    1
    32    85    84    2
    33    36    35    2
    34    33    34    1
    35    35    34    1
    36    82    83    1
    37    83    84    1
    38    83    86    1
    39    34    37    1
    40    88    87    1
    41   106   107   ar
    42   106   108   ar
    43    76    75    1
    44    74    75    1
    45    74    73    1
    46    86    87    1
    47   107   109   ar
    48    20    19    2
    49    72    71    2
    50   108   110   ar
    51    87    89    1
    52    12    11    2
    53    70    73    1
    54    70    71    1
    55    70    69    1
    56    19    18    1
    57    16    14    1
    58     9    10    1
    59    10    11    1
    60    10    13    1
    61    11    17   am
    62    71    77   am
    63   186   187    1
    64   192   191    1
    65   109   111   ar
    66    17    18    1
    67   110   111   ar
    68    18    21    1
    69    14    13    1
    70    14    15    1
    71    80    79    2
    72    79    78    1
    73    77    78    1
    74    50    49    2
    75   177   178    2
    76   177   176    1
    77   187   190    1
    78   187   188    1
    79   190   191    1
    80    51    48    1
    81    51    52    1
    82   191   193    1
    83    78    81    1
    84    21    22    1
    85    48    49    1
    86    48    47    1
    87    49    61   am
    88    57    59   ar
    89    57    54   ar
    90   176   175    1
    91   176   179    1
    92     4     3    2
    93   188   189    2
    94    52    54   ar
    95    52    53   ar
    96     3     2    1
    97    59    60   ar
    98    54    56   ar
    99    22    23    2
   100    22    24   am
   101     1     2    1
   102    64    63    2
   103   131   130    2
   104    61    62    1
   105   179   180    1
   106     2     5    1
   107    63    62    1
   108    53    55   ar
   109    62    65    1
   110    60    58   ar
   111   130   129    1
   112   134   135    1
   113   134   133    1
   114    56    55   ar
   115    56    58   ar
   116   132   129    1
   117   132   133    1
   118   180   182   ar
   119   180   181   ar
   120   182   184   ar
   121   129   128    1
   122    67    66    1
   123    67    68    1
   124     5     6    1
   125    65    66    1
   126   170   171    2
   127   170   169    1
   128   181   183   ar
   129   184   185   ar
   130     8     6    1
   131     6     7    1
   132   169   168    1
   133   169   172    1
   134   173   172    1
   135   142   141    1
   136   183   185   ar
   137   119   118    1
   138   118   117    1
   139   172   174    1
   140   160   159    1
   141   123   122    2
   142   143   141    1
   143   117   116    1
   144   141   140    1
   145   122   121    1
   146   140   137    1
   147   159   156    1
   148   115   114    2
   149   116   113    1
   150   166   165    1
   151   156   157    1
   152   156   155    1
   153   114   113    1
   154   124   121    1
   155   124   125    1
   156   121   120    1
   157   112   113    1
   158   137   138    1
   159   137   136    1
   160   139   138    2
   161   158   157    2
   162   153   151   ar
   163   153   154   ar
   164   165   167    1
   165   165   162    1
   166   151   149   ar
   167   164   163    2
   168   155   146   am
   169   163   162    1
   170   126   125    1
   171   125   127    1
   172   154   152   ar
   173   162   161    1
   174   147   146    2
   175   146   145    1
   176   149   148    1
   177   149   150   ar
   178   148   145    1
   179   145   144    1
   180   152   150   ar
