@<TRIPOS>MOLECULE
tmp/2q1lB00.pdb
 95 87 0 0 0
SMALL
GASTEIGER

@<TRIPOS>ATOM
      1  N         -3.6950  -14.8540   20.3430 N.3   130  ARG130     -0.1245
      2  CA        -4.4340  -14.2320   19.2510 C.3   130  ARG130      0.1563
      3  C         -5.0970  -12.9700   19.8080 C.2   130  ARG130      0.2260
      4  O         -5.7330  -13.0150   20.8530 O.2   130  ARG130     -0.2867
      5  CB        -5.4810  -15.2020   18.7020 C.3   130  ARG130      0.0307
      6  CG        -6.3870  -14.6430   17.6250 C.3   130  ARG130      0.0489
      7  CD        -5.9600  -15.0030   16.2190 C.3   130  ARG130      0.2205
      8  NE        -4.8540  -14.1720   15.7520 N.pl3 130  ARG130     -0.0865
      9  CZ        -4.0080  -14.5070   14.7750 C.cat 130  ARG130      0.5346
     10  NH1       -4.1200  -15.6670   14.1380 N.pl3 130  ARG130      0.1354
     11  NH2       -3.0410  -13.6640   14.4250 N.pl3 130  ARG130      0.1354
     12  N         -1.8960  -21.8160   16.0630 N.3   197  MET197     -0.1230
     13  CA        -2.5760  -20.6180   15.5590 C.3   197  MET197      0.1702
     14  C         -4.0320  -20.9080   15.2010 C.2   197  MET197      0.2592
     15  O         -4.9270  -20.1970   15.6370 O.2   197  MET197     -0.2718
     16  CB        -1.8620  -20.0300   14.3360 C.3   197  MET197      0.0401
     17  CG        -0.4410  -19.5480   14.6040 C.3   197  MET197      0.0596
     18  SD        -0.2070  -17.8790   15.3150 S.3   197  MET197     -0.1393
     19  CE        -0.9790  -16.8870   14.0920 C.3   197  MET197      0.0692
     20  N         -4.2630  -21.9440   14.3990 N.am  198  ASN198     -0.1974
     21  CA        -5.6230  -22.2930   13.9850 C.3   198  ASN198      0.1688
     22  C         -6.4800  -22.6920   15.1860 C.2   198  ASN198      0.2292
     23  O         -7.6590  -22.3580   15.2480 O.2   198  ASN198     -0.2864
     24  CB        -5.6170  -23.4140   12.9300 C.3   198  ASN198      0.1181
     25  CG        -5.3360  -22.9000   11.5140 C.2   198  ASN198      0.2629
     26  OD1       -5.8360  -21.8440   11.0990 O.2   198  ASN198     -0.2716
     27  ND2       -4.5400  -23.6560   10.7630 N.am  198  ASN198     -0.0877
     28  N         -7.3300  -19.5890   17.1760 N.3   201  SER201     -0.1217
     29  CA        -8.2610  -18.8020   16.3640 C.3   201  SER201      0.1889
     30  C         -9.6890  -19.3270   16.4840 C.2   201  SER201      0.2288
     31  O        -10.6400  -18.5540   16.4720 O.2   201  SER201     -0.2866
     32  CB        -7.8490  -18.8000   14.8840 C.3   201  SER201      0.2089
     33  OG        -6.9820  -17.7130   14.6020 O.3   201  SER201     -0.2183
     34  N        -12.7780  -17.2410   18.2690 N.3   205  GLU205     -0.1245
     35  CA       -14.0010  -16.8980   17.5350 C.3   205  GLU205      0.1567
     36  C        -15.2660  -17.3050   18.2760 C.2   205  GLU205      0.2260
     37  O        -16.2580  -16.5820   18.2480 O.2   205  GLU205     -0.2867
     38  CB       -14.0000  -17.5270   16.1420 C.3   205  GLU205      0.0388
     39  CG       -13.3660  -16.6500   15.0730 C.3   205  GLU205      0.1160
     40  CD       -13.5470  -17.2220   13.6790 C.2   205  GLU205      0.3649
     41  OE1      -14.7070  -17.5160   13.3060 O.co2 205  GLU205     -0.2457
     42  OE2      -12.5340  -17.3790   12.9580 O.co2 205  GLU205     -0.2457
     43  N        -10.3910  -10.5780   13.5470 N.3   223  VAL223     -0.1231
     44  CA        -9.9880  -11.6570   14.4580 C.3   223  VAL223      0.1692
     45  C         -8.5200  -11.5170   14.8880 C.2   223  VAL223      0.2592
     46  O         -8.1230  -12.0650   15.9090 O.2   223  VAL223     -0.2718
     47  CB       -10.2970  -13.0790   13.8730 C.3   223  VAL223      0.0266
     48  CG1       -9.5160  -13.3600   12.5850 C.3   223  VAL223      0.0020
     49  CG2      -10.0300  -14.1560   14.8950 C.3   223  VAL223      0.0020
     50  N         -7.7310  -10.7770   14.1100 N.am  224  SER224     -0.1952
     51  CA        -6.4510  -10.2470   14.5770 C.3   224  SER224      0.1924
     52  C         -6.4270   -8.7240   14.4360 C.2   224  SER224      0.2314
     53  O         -6.5110   -8.1970   13.3260 O.2   224  SER224     -0.2863
     54  CB        -5.2790  -10.8180   13.7810 C.3   224  SER224      0.2116
     55  OG        -4.0930  -10.0600   14.0250 O.3   224  SER224     -0.2180
     56  N         -3.6530   -7.1320   15.5470 N.3   226  ASN226     -0.1240
     57  CA        -2.2120   -6.9290   15.7530 C.3   226  ASN226      0.1653
     58  C         -1.7560   -6.8710   17.2100 C.2   226  ASN226      0.2266
     59  O         -0.6410   -6.4510   17.5040 O.2   226  ASN226     -0.2867
     60  CB        -1.7100   -5.7040   14.9760 C.3   226  ASN226      0.1155
     61  CG        -1.3950   -6.0290   13.5330 C.2   226  ASN226      0.2627
     62  OD1       -1.6700   -7.1310   13.0720 O.2   226  ASN226     -0.2716
     63  ND2       -0.8220   -5.0710   12.8120 N.am  226  ASN226     -0.0877
     64  N         -1.5490   -9.6130   19.0190 N.3   228  CYS228     -0.1235
     65  CA        -1.0840  -10.9720   19.3420 C.3   228  CYS228      0.1677
     66  C          0.3180  -11.0160   19.9350 C.2   228  CYS228      0.2270
     67  O          0.4900  -11.6450   20.9760 O.2   228  CYS228     -0.2867
     68  CB        -1.1700  -11.9410   18.1530 C.3   228  CYS228      0.0956
     69  SG        -2.5780  -11.6860   17.0830 S.3   228  CYS228     -0.0801
     70  N          1.5310  -11.3260   15.9010 N.3   230  ASP230     -0.1225
     71  CA         2.0630  -12.3790   15.0420 C.3   230  ASP230      0.1805
     72  C          2.8340  -11.8110   13.8520 C.2   230  ASP230      0.2598
     73  O          2.2900  -11.0530   13.0650 O.2   230  ASP230     -0.2718
     74  CB         0.9190  -13.2670   14.5420 C.3   230  ASP230      0.1424
     75  CG         1.4080  -14.5420   13.8740 C.2   230  ASP230      0.3668
     76  OD1        2.2400  -15.2680   14.4620 O.co2 230  ASP230     -0.2456
     77  OD2        0.9930  -14.8960   12.7540 O.co2 230  ASP230     -0.2456
     78  N          4.1050  -12.1980   13.7430 N.am  231  LYS231     -0.1966
     79  CA         4.9540  -11.9220   12.5780 C.3   231  LYS231      0.1728
     80  C          5.2780  -10.4390   12.3470 C.2   231  LYS231      0.2616
     81  O          5.6870  -10.0420   11.2520 O.2   231  LYS231     -0.2715
     82  CB         4.3700  -12.5940   11.3260 C.3   231  LYS231      0.0311
     83  CG         4.2550  -14.1150   11.4720 C.3   231  LYS231      0.0038
     84  CD         3.4980  -14.7610   10.3150 C.3   231  LYS231      0.0206
     85  CE         3.4960  -16.2770   10.4060 C.3   231  LYS231      0.1093
     86  NZ         2.6390  -16.8950    9.3380 N.3   231  LYS231     -0.1314
     87  N          5.1060   -9.6250   13.3860 N.am  232  LYS232     -0.1977
     88  CA         5.6030   -8.2490   13.3970 C.3   232  LYS232      0.1596
     89  C          6.3140   -8.0070   14.7170 C.2   232  LYS232      0.2287
     90  O          5.9360   -8.5870   15.7320 O.2   232  LYS232     -0.2864
     91  CB         4.4580   -7.2460   13.2650 C.3   232  LYS232      0.0298
     92  CG         3.8780   -7.1060   11.8720 C.3   232  LYS232      0.0038
     93  CD         2.7310   -8.0800   11.5940 C.3   232  LYS232      0.0206
     94  CE         1.5450   -7.9230   12.5550 C.3   232  LYS232      0.1093
     95  NZ         0.4330   -8.8400   12.1960 N.3   232  LYS232     -0.1314
@<TRIPOS>BOND
     1    86    85    1
     2    84    85    1
     3    84    83    1
     4    27    25   am
     5    26    25    2
     6    81    80    2
     7    82    83    1
     8    82    79    1
     9    25    24    1
    10    93    92    1
    11    93    94    1
    12    92    91    1
    13    95    94    1
    14    80    79    1
    15    80    87   am
    16    79    78    1
    17    48    47    1
    18    77    75   ar
    19    63    61   am
    20    24    21    1
    21    42    40   ar
    22    73    72    2
    23    62    61    2
    24    91    88    1
    25    41    40   ar
    26    53    52    2
    27    87    88    1
    28    88    89    1
    29    61    60    1
    30    43    44    1
    31    40    39    1
    32    78    72   am
    33    54    55    1
    34    54    51    1
    35    72    71    1
    36    47    44    1
    37    47    49    1
    38    75    76   ar
    39    75    74    1
    40    21    20    1
    41    21    22    1
    42    19    18    1
    43    50    51    1
    44    50    45   am
    45    10     9    1
    46    16    17    1
    47    16    13    1
    48    20    14   am
    49    11     9    1
    50    52    51    1
    51    44    45    1
    52    74    71    1
    53    33    32    1
    54    17    18    1
    55    89    90    2
    56     9     8    2
    57    32    29    1
    58    45    46    2
    59    60    57    1
    60    71    70    1
    61    39    38    1
    62    22    23    2
    63    14    13    1
    64    14    15    2
    65    56    57    1
    66    13    12    1
    67     8     7    1
    68    57    58    1
    69    38    35    1
    70     7     6    1
    71    29    30    1
    72    29    28    1
    73    31    30    2
    74    69    68    1
    75    58    59    2
    76    35    34    1
    77    35    36    1
    78     6     5    1
    79    68    65    1
    80    37    36    2
    81     5     2    1
    82    64    65    1
    83     2     3    1
    84     2     1    1
    85    65    66    1
    86     3     4    2
    87    66    67    2
