@<TRIPOS>MOLECULE
tmp/2q1lB01.pdb
 122 115 0 0 0
SMALL
GASTEIGER

@<TRIPOS>ATOM
      1  N         24.0290  -19.5990    4.2220 N.3    99  GLU99      -0.1231
      2  CA        25.0590  -18.6830    4.6790 C.3    99  GLU99       0.1699
      3  C         26.3130  -19.4790    5.0000 C.2    99  GLU99       0.2593
      4  O         26.2820  -20.3880    5.8300 O.2    99  GLU99      -0.2718
      5  CB        24.6080  -17.9120    5.9220 C.3    99  GLU99       0.0402
      6  CG        25.7370  -17.1480    6.6130 C.3    99  GLU99       0.1161
      7  CD        25.2450  -16.0280    7.5140 C.2    99  GLU99       0.3649
      8  OE1       24.0540  -16.0350    7.8770 O.co2  99  GLU99      -0.2457
      9  OE2       26.0560  -15.1350    7.8560 O.co2  99  GLU99      -0.2457
     10  N         27.4130  -19.1150    4.3500 N.am  100  GLY100     -0.1942
     11  CA        28.6990  -19.7380    4.5920 C.3   100  GLY100      0.2014
     12  C         29.1640  -19.5410    6.0200 C.2   100  GLY100      0.2639
     13  O         28.9570  -18.4790    6.6070 O.2   100  GLY100     -0.2714
     14  N         29.7650  -20.5950    6.5700 N.am  101  CYS101     -0.1953
     15  CA        30.3620  -20.6160    7.9100 C.3   101  CYS101      0.1843
     16  C         29.3840  -20.5950    9.0860 C.2   101  CYS101      0.2625
     17  O         29.8210  -20.6830   10.2210 O.2   101  CYS101     -0.2714
     18  CB        31.3780  -19.4760    8.0770 C.3   101  CYS101      0.0997
     19  SG        32.7350  -19.5290    6.8830 S.3   101  CYS101     -0.0797
     20  N         28.0810  -20.4860    8.8410 N.am  102  LEU102     -0.1977
     21  CA        27.1160  -20.4400    9.9430 C.3   102  LEU102      0.1596
     22  C         27.1160  -21.7560   10.7250 C.2   102  LEU102      0.2287
     23  O         27.2530  -21.7630   11.9500 O.2   102  LEU102     -0.2864
     24  CB        25.7050  -20.1260    9.4340 C.3   102  LEU102      0.0297
     25  CG        24.5660  -20.2120   10.4650 C.3   102  LEU102      0.0022
     26  CD1       24.8400  -19.3520   11.6910 C.3   102  LEU102      0.0001
     27  CD2       23.2670  -19.8090    9.8130 C.3   102  LEU102      0.0001
     28  N         29.3750  -24.1240   10.7260 N.3   104  ALA104     -0.1231
     29  CA        30.7040  -24.3390   11.2990 C.3   104  ALA104      0.1694
     30  C         30.8630  -23.5610   12.5930 C.2   104  ALA104      0.2592
     31  O         31.3500  -24.1000   13.5820 O.2   104  ALA104     -0.2718
     32  CB        31.7990  -23.9310   10.2980 C.3   104  ALA104      0.0304
     33  N         30.4520  -22.2950   12.5850 N.am  105  SER105     -0.1952
     34  CA        30.5810  -21.4360   13.7630 C.3   105  SER105      0.1924
     35  C         29.7220  -21.9320   14.9160 C.2   105  SER105      0.2314
     36  O         30.1910  -22.0170   16.0470 O.2   105  SER105     -0.2863
     37  CB        30.2010  -19.9910   13.4350 C.3   105  SER105      0.2116
     38  OG        30.4390  -19.1480   14.5510 O.3   105  SER105     -0.2180
     39  N         31.3360  -24.8480   16.5660 N.3   108  ARG108     -0.1245
     40  CA        32.4050  -24.4850   17.4980 C.3   108  ARG108      0.1563
     41  C         31.8380  -24.0050   18.8380 C.2   108  ARG108      0.2260
     42  O         32.4520  -24.2020   19.8880 O.2   108  ARG108     -0.2867
     43  CB        33.3050  -23.4050   16.8950 C.3   108  ARG108      0.0307
     44  CG        34.5180  -23.0670   17.7510 C.3   108  ARG108      0.0489
     45  CD        35.4630  -22.0640   17.1250 C.3   108  ARG108      0.2205
     46  NE        34.9030  -20.7100   17.1410 N.pl3 108  ARG108     -0.0865
     47  CZ        35.6070  -19.5870   17.3030 C.cat 108  ARG108      0.5346
     48  NH1       36.9260  -19.6160   17.4750 N.pl3 108  ARG108      0.1354
     49  NH2       34.9770  -18.4140   17.2930 N.pl3 108  ARG108      0.1354
     50  N         28.2400   -4.2100   22.5450 N.3   275  LYS275     -0.1245
     51  CA        27.5800   -4.5270   21.2860 C.3   275  LYS275      0.1561
     52  C         26.1310   -4.9020   21.5440 C.2   275  LYS275      0.2260
     53  O         25.2160   -4.2730   21.0130 O.2   275  LYS275     -0.2867
     54  CB        28.2900   -5.6910   20.5870 C.3   275  LYS275      0.0271
     55  CG        27.5110   -6.3250   19.4220 C.3   275  LYS275      0.0035
     56  CD        28.2100   -7.5760   18.9300 C.3   275  LYS275      0.0206
     57  CE        27.4200   -8.2760   17.8480 C.3   275  LYS275      0.1093
     58  NZ        27.5340   -7.5840   16.5340 N.3   275  LYS275     -0.1314
     59  N         23.6640  -11.0420   19.1530 N.3   291  ALA291     -0.1231
     60  CA        24.4910  -10.9870   17.9530 C.3   291  ALA291      0.1694
     61  C         23.7410  -11.5150   16.7380 C.2   291  ALA291      0.2592
     62  O         23.5460  -10.7840   15.7680 O.2   291  ALA291     -0.2718
     63  CB        25.7890  -11.7630   18.1630 C.3   291  ALA291      0.0304
     64  N         23.3030  -12.7700   16.7860 N.am  292  HIS292     -0.1976
     65  CA        22.6730  -13.3840   15.6230 C.3   292  HIS292      0.1656
     66  C         21.7490  -14.5630   15.9150 C.2   292  HIS292      0.2291
     67  O         21.7590  -15.5620   15.1910 O.2   292  HIS292     -0.2864
     68  CB        23.7380  -13.7540   14.5740 C.3   292  HIS292      0.0771
     69  CG        24.6000  -14.9220   14.9400 C.ar  292  HIS292      0.0820
     70  ND1       25.1740  -15.7370   13.9870 N.ar  292  HIS292     -0.2267
     71  CD2       24.9950  -15.4100   16.1400 C.ar  292  HIS292      0.1154
     72  CE1       25.8940  -16.6690   14.5870 C.ar  292  HIS292      0.1986
     73  NE2       25.8010  -16.4950   15.8930 N.ar  292  HIS292     -0.2212
     74  N         19.8130  -16.0610   12.8830 N.3   295  ASN295     -0.1240
     75  CA        20.4660  -17.0680   12.0470 C.3   295  ASN295      0.1653
     76  C         20.1190  -18.4860   12.4800 C.2   295  ASN295      0.2266
     77  O         19.6830  -19.3020   11.6660 O.2   295  ASN295     -0.2867
     78  CB        21.9920  -16.8920   12.0700 C.3   295  ASN295      0.1155
     79  CG        22.4840  -15.8410   11.0860 C.2   295  ASN295      0.2627
     80  OD1       21.7710  -15.4470   10.1560 O.2   295  ASN295     -0.2716
     81  ND2       23.7170  -15.3890   11.2840 N.am  295  ASN295     -0.0877
     82  N         30.2200  -18.4090   19.7490 N.3   392  SER392     -0.1202
     83  CA        31.1980  -18.5250   18.6770 C.3   392  SER392      0.2020
     84  C         31.3750  -17.2040   17.9350 C.2   392  SER392      0.2618
     85  O         32.4950  -16.7420   17.7680 O.2   392  SER392     -0.2717
     86  CB        30.7910  -19.6380   17.7050 C.3   392  SER392      0.2103
     87  OG        31.7770  -19.8360   16.7010 O.3   392  SER392     -0.2182
     88  N         30.2790  -16.5870   17.5020 N.am  393  LEU393     -0.1979
     89  CA        30.3700  -15.3180   16.7770 C.3   393  LEU393      0.1596
     90  C         30.9860  -14.2120   17.6270 C.2   393  LEU393      0.2287
     91  O         31.7930  -13.4380   17.1280 O.2   393  LEU393     -0.2864
     92  CB        29.0050  -14.8640   16.2440 C.3   393  LEU393      0.0297
     93  CG        29.0050  -13.4800   15.5790 C.3   393  LEU393      0.0022
     94  CD1       30.0050  -13.4410   14.4180 C.3   393  LEU393      0.0001
     95  CD2       27.6120  -13.1110   15.1070 C.3   393  LEU393      0.0001
     96  N         34.6430  -14.6700   17.7860 N.3   396  ALA396     -0.1231
     97  CA        35.2010  -14.3120   16.4830 C.3   396  ALA396      0.1694
     98  C         35.3750  -12.7970   16.3660 C.2   396  ALA396      0.2591
     99  O         36.4210  -12.3230   15.9210 O.2   396  ALA396     -0.2718
    100  CB        34.3160  -14.8320   15.3720 C.3   396  ALA396      0.0304
    101  N         34.3500  -12.0510   16.7810 N.am  397  LEU397     -0.1980
    102  CA        34.3690  -10.5880   16.7560 C.3   397  LEU397      0.1596
    103  C         35.3620  -10.0260   17.7720 C.2   397  LEU397      0.2287
    104  O         36.0200   -9.0250   17.5070 O.2   397  LEU397     -0.2864
    105  CB        32.9680  -10.0160   17.0490 C.3   397  LEU397      0.0297
    106  CG        31.9060  -10.1310   15.9480 C.3   397  LEU397      0.0022
    107  CD1       30.5150   -9.8480   16.5190 C.3   397  LEU397      0.0001
    108  CD2       32.2180   -9.1850   14.7860 C.3   397  LEU397      0.0001
    109  N         39.0250  -10.6920   16.2780 N.3   400  GLY400     -0.1210
    110  CA        39.2380   -9.8770   15.0880 C.3   400  GLY400      0.1956
    111  C         39.7880  -10.6480   13.8960 C.2   400  GLY400      0.2611
    112  O         39.8480  -11.8830   13.9160 O.2   400  GLY400     -0.2717
    113  N         40.1820   -9.9020   12.8580 N.am  401  HIS401     -0.1975
    114  CA        40.8220  -10.4420   11.6410 C.3   401  HIS401      0.1656
    115  C         39.8220  -11.0560   10.6470 C.2   401  HIS401      0.2291
    116  O         39.9220  -10.8670    9.4290 O.2   401  HIS401     -0.2864
    117  CB        41.9300  -11.4530   11.9900 C.3   401  HIS401      0.0771
    118  CG        43.0300  -11.5300   10.9730 C.ar  401  HIS401      0.0820
    119  ND1       42.8120  -11.8980    9.6610 N.ar  401  HIS401     -0.2267
    120  CD2       44.3630  -11.3080   11.0840 C.ar  401  HIS401      0.1154
    121  CE1       43.9600  -11.8910    9.0060 C.ar  401  HIS401      0.1986
    122  NE2       44.9170  -11.5360    9.8460 N.ar  401  HIS401     -0.2212
@<TRIPOS>BOND
     1     1     2    1
     2    10    11    1
     3    10     3   am
     4    11    12    1
     5     2     3    1
     6     2     5    1
     7     3     4    2
     8     5     6    1
     9    12    14   am
    10    12    13    2
    11    14    15    1
    12     6     7    1
    13    19    18    1
    14     7     9   ar
    15     7     8   ar
    16    15    18    1
    17    15    16    1
    18    20    16   am
    19    20    21    1
    20   121   119   ar
    21   121   122   ar
    22    16    17    2
    23   116   115    2
    24    24    21    1
    25    24    25    1
    26   119   118   ar
    27    27    25    1
    28   122   120   ar
    29    21    22    1
    30    80    79    2
    31    32    29    1
    32    25    26    1
    33   115   114    1
    34    22    23    2
    35    28    29    1
    36   118   120   ar
    37   118   117    1
    38    79    81   am
    39    79    78    1
    40    29    30    1
    41   114   117    1
    42   114   113    1
    43    77    76    2
    44    75    78    1
    45    75    76    1
    46    75    74    1
    47    33    30   am
    48    33    34    1
    49    30    31    2
    50   113   111   am
    51    37    34    1
    52    37    38    1
    53    34    35    1
    54   111   112    2
    55   111   110    1
    56    70    72   ar
    57    70    69   ar
    58    94    93    1
    59    68    69    1
    60    68    65    1
    61    72    73   ar
    62   108   106    1
    63    35    36    2
    64    69    71   ar
    65   110   109    1
    66    95    93    1
    67    67    66    2
    68   100    97    1
    69    93    92    1
    70    65    66    1
    71    65    64    1
    72    62    61    2
    73    73    71   ar
    74    99    98    2
    75   106   107    1
    76   106   105    1
    77    92    89    1
    78    98    97    1
    79    98   101   am
    80    97    96    1
    81    58    57    1
    82    39    40    1
    83    87    86    1
    84    61    64   am
    85    61    60    1
    86   102   101    1
    87   102   105    1
    88   102   103    1
    89    89    88    1
    90    89    90    1
    91    43    40    1
    92    43    44    1
    93    45    46    1
    94    45    44    1
    95    91    90    2
    96    46    47    2
    97    49    47    1
    98    47    48    1
    99    40    41    1
   100    88    84   am
   101   104   103    2
   102    86    83    1
   103    85    84    2
   104    57    56    1
   105    84    83    1
   106    60    63    1
   107    60    59    1
   108    83    82    1
   109    41    42    2
   110    56    55    1
   111    55    54    1
   112    54    51    1
   113    53    52    2
   114    51    52    1
   115    51    50    1
