@<TRIPOS>MOLECULE
tmp/2q1qA00.pdb
 140 137 0 0 0
SMALL
GASTEIGER

@<TRIPOS>ATOM
      1  N         -3.3480    0.4830    3.6710 N.3    59  ASN59      -0.1240
      2  CA        -2.2420    1.3030    4.1720 C.3    59  ASN59       0.1653
      3  C         -0.9730    0.4990    4.4350 C.2    59  ASN59       0.2266
      4  O         -0.0500    0.9890    5.0710 O.2    59  ASN59      -0.2867
      5  CB        -2.6620    2.0980    5.4240 C.3    59  ASN59       0.1155
      6  CG        -2.9080    1.2070    6.6380 C.2    59  ASN59       0.2627
      7  OD1       -2.5140    0.0290    6.6710 O.2    59  ASN59      -0.2716
      8  ND2       -3.5660    1.7680    7.6480 N.am   59  ASN59      -0.0877
      9  N         -0.6480   -2.1500    6.2590 N.3    61  HIS61      -0.1241
     10  CA        -0.7330   -2.9640    7.4700 C.3    61  HIS61       0.1621
     11  C         -2.1410   -3.4620    7.7610 C.2    61  HIS61       0.2264
     12  O         -2.2990   -4.5400    8.3480 O.2    61  HIS61      -0.2867
     13  CB        -0.0760   -2.3100    8.6970 C.3    61  HIS61       0.0745
     14  CG        -0.2950   -0.8360    8.8090 C.ar   61  HIS61       0.0817
     15  ND1        0.6130    0.0870    8.3340 N.ar   61  HIS61      -0.2268
     16  CD2       -1.2920   -0.1230    9.3800 C.ar   61  HIS61       0.1154
     17  CE1        0.1690    1.3050    8.5840 C.ar   61  HIS61       0.1986
     18  NE2       -0.9830    1.2060    9.2230 N.ar   61  HIS61      -0.2212
     19  N         -8.2770    0.7130    5.9630 N.3    64  ASN64      -0.1240
     20  CA        -9.1310    1.6510    6.6870 C.3    64  ASN64       0.1653
     21  C        -10.3350    2.0580    5.8550 C.2    64  ASN64       0.2266
     22  O        -10.1880    2.4820    4.7030 O.2    64  ASN64      -0.2867
     23  CB        -8.3570    2.9240    7.0710 C.3    64  ASN64       0.1155
     24  CG        -7.2570    2.6770    8.0820 C.2    64  ASN64       0.2627
     25  OD1       -6.3350    3.4930    8.2210 O.2    64  ASN64      -0.2716
     26  ND2       -7.3420    1.5690    8.7970 N.am   64  ASN64      -0.0877
     27  N        -12.6620    6.3950   11.2410 N.3    89  GLN89      -0.1245
     28  CA       -12.3310    5.2340   10.4050 C.3    89  GLN89       0.1566
     29  C        -12.6020    3.9340   11.1530 C.2    89  GLN89       0.2260
     30  O        -12.7250    3.9470   12.3740 O.2    89  GLN89      -0.2867
     31  CB       -10.8700    5.2810    9.9460 C.3    89  GLN89       0.0367
     32  CG        -9.8300    5.3140   11.0750 C.3    89  GLN89       0.0905
     33  CD        -9.0840    4.0100   11.2600 C.2    89  GLN89       0.2608
     34  OE1       -9.6440    2.9260   11.1360 O.2    89  GLN89      -0.2717
     35  NE2       -7.8090    4.1160   11.5960 N.am   89  GLN89      -0.0878
     36  N        -11.1970   -0.4050   10.9040 N.3    91  HIS91      -0.1241
     37  CA       -10.3110   -1.3720   10.2980 C.3    91  HIS91       0.1621
     38  C        -10.3700   -2.6400   11.1470 C.2    91  HIS91       0.2264
     39  O        -11.0200   -2.6690   12.2000 O.2    91  HIS91      -0.2867
     40  CB        -8.8790   -0.8300   10.2600 C.3    91  HIS91       0.0745
     41  CG        -8.3170   -0.5490   11.6170 C.ar   91  HIS91       0.0817
     42  ND1       -8.5080    0.6510   12.2680 N.ar   91  HIS91      -0.2268
     43  CD2       -7.6100   -1.3310   12.4660 C.ar   91  HIS91       0.1154
     44  CE1       -7.9340    0.5980   13.4570 C.ar   91  HIS91       0.1986
     45  NE2       -7.3750   -0.5910   13.5970 N.ar   91  HIS91      -0.2212
     46  N         -8.0420   -6.3560   12.4890 N.3    93  HIS93      -0.1241
     47  CA        -6.8210   -7.1390   12.6060 C.3    93  HIS93       0.1621
     48  C         -7.2870   -8.5810   12.4950 C.2    93  HIS93       0.2264
     49  O         -8.3260   -8.9390   13.0660 O.2    93  HIS93      -0.2867
     50  CB        -6.1460   -6.8940   13.9550 C.3    93  HIS93       0.0745
     51  CG        -5.8750   -5.4470   14.2270 C.ar   93  HIS93       0.0817
     52  ND1       -4.6430   -4.8690   14.0240 N.ar   93  HIS93      -0.2268
     53  CD2       -6.6950   -4.4520   14.6440 C.ar   93  HIS93       0.1154
     54  CE1       -4.7090   -3.5830   14.3280 C.ar   93  HIS93       0.1986
     55  NE2       -5.9470   -3.3040   14.7000 N.ar   93  HIS93      -0.2212
     56  N        -11.9620   -2.5620   14.8170 N.3   116  HIS116     -0.1241
     57  CA       -11.7330   -1.3390   15.5660 C.3   116  HIS116      0.1621
     58  C        -12.4190   -0.1610   14.8850 C.2   116  HIS116      0.2264
     59  O        -12.0700    0.2050   13.7550 O.2   116  HIS116     -0.2867
     60  CB       -10.2150   -1.0960   15.7090 C.3   116  HIS116      0.0745
     61  CG        -9.5410   -2.0760   16.6210 C.ar  116  HIS116      0.0817
     62  ND1       -8.1870   -2.3410   16.5790 N.ar  116  HIS116     -0.2268
     63  CD2      -10.0460   -2.8570   17.6050 C.ar  116  HIS116      0.1154
     64  CE1       -7.8920   -3.2510   17.4880 C.ar  116  HIS116      0.1986
     65  NE2       -9.0020   -3.5760   18.1270 N.ar  116  HIS116     -0.2212
     66  N        -12.7640    3.6430   15.1800 N.3   118  VAL118     -0.1245
     67  CA       -11.8630    4.6100   15.8010 C.3   118  VAL118      0.1561
     68  C        -12.5830    5.9610   15.8910 C.2   118  VAL118      0.2260
     69  O        -13.1400    6.4360   14.8860 O.2   118  VAL118     -0.2867
     70  CB       -10.5460    4.7150   15.0080 C.3   118  VAL118      0.0252
     71  CG1       -9.5680    5.7070   15.6740 C.3   118  VAL118      0.0019
     72  CG2       -9.9040    3.3280   14.8390 C.3   118  VAL118      0.0019
     73  N         -8.3030   14.8940   14.7560 N.3   127  PHE127     -0.1241
     74  CA        -7.6490   13.6390   15.1390 C.3   127  PHE127      0.1605
     75  C         -6.1990   13.8550   15.5760 C.2   127  PHE127      0.2264
     76  O         -5.7840   13.3310   16.6090 O.2   127  PHE127     -0.2867
     77  CB        -7.7310   12.6200   13.9990 C.3   127  PHE127      0.0534
     78  CG        -7.0750   11.2990   14.3060 C.ar  127  PHE127     -0.0203
     79  CD1       -5.7490   11.0630   13.9390 C.ar  127  PHE127     -0.0042
     80  CD2       -7.7870   10.2850   14.9460 C.ar  127  PHE127     -0.0042
     81  CE1       -5.1320    9.8450   14.2140 C.ar  127  PHE127     -0.0003
     82  CE2       -7.1830    9.0510   15.2260 C.ar  127  PHE127     -0.0003
     83  CZ        -5.8520    8.8280   14.8650 C.ar  127  PHE127     -0.0000
     84  N        -11.7250    3.8250   21.0160 N.3   139  VAL139     -0.1245
     85  CA       -11.8510    2.7660   20.0260 C.3   139  VAL139      0.1561
     86  C        -12.8210    1.7090   20.5510 C.2   139  VAL139      0.2260
     87  O        -12.6740    1.2070   21.6680 O.2   139  VAL139     -0.2867
     88  CB       -10.4820    2.1810   19.5950 C.3   139  VAL139      0.0252
     89  CG1      -10.6510    1.2310   18.4040 C.3   139  VAL139      0.0019
     90  CG2       -9.5270    3.3120   19.2090 C.3   139  VAL139      0.0019
     91  N         -2.9560    3.2000   21.1470 N.3   194  LEU194     -0.1231
     92  CA        -2.9840    2.6530   19.7900 C.3   194  LEU194      0.1693
     93  C         -2.2430    1.3100   19.7990 C.2   194  LEU194      0.2593
     94  O         -1.2250    1.1630   20.4840 O.2   194  LEU194     -0.2718
     95  CB        -2.3010    3.6210   18.8190 C.3   194  LEU194      0.0284
     96  CG        -2.8940    5.0320   18.6430 C.3   194  LEU194      0.0019
     97  CD1       -1.9700    5.8610   17.7840 C.3   194  LEU194      0.0001
     98  CD2       -4.2790    4.9500   18.0340 C.3   194  LEU194      0.0001
     99  N         -2.7370    0.3270   19.0510 N.am  195  THR195     -0.1939
    100  CA        -2.0540   -0.9740   18.9930 C.3   195  THR195      0.2028
    101  C         -1.0150   -1.0910   17.8740 C.2   195  THR195      0.2643
    102  O         -0.3650   -2.1420   17.7320 O.2   195  THR195     -0.2714
    103  CB        -3.0460   -2.1080   18.8090 C.3   195  THR195      0.1808
    104  OG1       -3.7340   -1.8970   17.5710 O.3   195  THR195     -0.2208
    105  CG2       -4.0390   -2.1570   19.9860 C.3   195  THR195      0.0379
    106  N         -0.8870   -0.0410   17.0630 N.am  196  THR196     -0.1937
    107  CA         0.1940    0.0510   16.0720 C.3   196  THR196      0.2013
    108  C          1.0560    1.2660   16.3630 C.2   196  THR196      0.2484
    109  O          0.6040    2.2080   17.0320 O.2   196  THR196     -0.2729
    110  CB        -0.3310    0.1650   14.6010 C.3   196  THR196      0.1807
    111  OG1       -0.8670    1.4800   14.3800 O.3   196  THR196     -0.2208
    112  CG2       -1.3980   -0.8940   14.2980 C.3   196  THR196      0.0379
    113  N          2.3090    1.2760   15.8590 N.am  197  PRO197     -0.2715
    114  CA         3.0130    2.5460   15.9690 C.3   197  PRO197      0.1521
    115  C          2.1390    3.6710   15.4310 C.2   197  PRO197      0.2440
    116  O          1.3810    3.4520   14.4680 O.2   197  PRO197     -0.2731
    117  CB         4.2420    2.3240   15.1020 C.3   197  PRO197      0.0310
    118  CG         4.5410    0.8850   15.3030 C.3   197  PRO197      0.0237
    119  CD         3.1590    0.2370   15.2560 C.3   197  PRO197      0.0939
    120  N          2.2270    4.8740   16.0300 N.am  198  PRO198     -0.2727
    121  CA         3.1330    5.3460   17.0810 C.3   198  PRO198      0.1402
    122  C          2.8190    4.9010   18.5270 C.2   198  PRO198      0.2269
    123  O          3.4930    5.3580   19.4480 O.2   198  PRO198     -0.2865
    124  CB         3.0190    6.8720   16.9630 C.3   198  PRO198      0.0296
    125  CG         1.6330    7.0990   16.4650 C.3   198  PRO198      0.0237
    126  CD         1.3170    5.9430   15.5690 C.3   198  PRO198      0.0939
    127  N        -10.4030    2.3190   25.6200 N.3   205  TRP205     -0.1241
    128  CA       -10.8590    1.1300   24.9100 C.3   205  TRP205      0.1605
    129  C        -12.1970    0.6810   25.4260 C.2   205  TRP205      0.2264
    130  O        -12.4370    0.6480   26.6360 O.2   205  TRP205     -0.2867
    131  CB        -9.8410   -0.0110   25.0080 C.3   205  TRP205      0.0550
    132  CG        -8.7540    0.1470   24.0310 C.ar  205  TRP205      0.0003
    133  CD1       -7.5390    0.7200   24.2380 C.ar  205  TRP205      0.0946
    134  CD2       -8.7850   -0.2630   22.6580 C.ar  205  TRP205      0.0152
    135  NE1       -6.8000    0.6910   23.0760 N.ar  205  TRP205     -0.2442
    136  CE2       -7.5410    0.0820   22.0930 C.ar  205  TRP205      0.0810
    137  CE3       -9.7460   -0.9010   21.8550 C.ar  205  TRP205      0.0012
    138  CZ2       -7.2300   -0.1690   20.7500 C.ar  205  TRP205      0.0191
    139  CZ3       -9.4400   -1.1620   20.5260 C.ar  205  TRP205      0.0001
    140  CH2       -8.1860   -0.7970   19.9860 C.ar  205  TRP205      0.0015
@<TRIPOS>BOND
     1     1     2    1
     2     2     3    1
     3     2     5    1
     4     3     4    2
     5    22    21    2
     6     5     6    1
     7    21    20    1
     8    19    20    1
     9     9    10    1
    10     6     7    2
    11     6     8   am
    12    20    23    1
    13    23    24    1
    14    10    11    1
    15    10    13    1
    16    11    12    2
    17    24    25    2
    18    24    26   am
    19    15    17   ar
    20    15    14   ar
    21    17    18   ar
    22    13    14    1
    23    14    16   ar
    24    18    16   ar
    25    31    28    1
    26    31    32    1
    27    40    37    1
    28    40    41    1
    29    37    36    1
    30    37    38    1
    31    28    29    1
    32    28    27    1
    33    32    33    1
    34    34    33    2
    35    38    39    2
    36    29    30    2
    37    33    35   am
    38    41    42   ar
    39    41    43   ar
    40    42    44   ar
    41    43    45   ar
    42    46    47    1
    43    48    47    1
    44    48    49    2
    45    47    50    1
    46    44    45   ar
    47    59    58    2
    48    79    81   ar
    49    79    78   ar
    50    50    51    1
    51    77    78    1
    52    77    74    1
    53    52    51   ar
    54    52    54   ar
    55    81    83   ar
    56    51    53   ar
    57   112   110    1
    58    78    80   ar
    59    54    55   ar
    60   111   110    1
    61   116   115    2
    62   110   107    1
    63    53    55   ar
    64    73    74    1
    65    56    57    1
    66    72    70    1
    67    83    82   ar
    68    58    57    1
    69    69    68    2
    70    80    82   ar
    71    70    71    1
    72    70    67    1
    73   117   118    1
    74   117   114    1
    75    74    75    1
    76    66    67    1
    77   119   118    1
    78   119   113    1
    79   115   114    1
    80   115   120   am
    81    57    60    1
    82   126   120    1
    83   126   125    1
    84    75    76    2
    85    60    61    1
    86    67    68    1
    87   113   114    1
    88   113   108   am
    89   120   121    1
    90   107   108    1
    91   107   106    1
    92   108   109    2
    93   125   124    1
    94    62    61   ar
    95    62    64   ar
    96    61    63   ar
    97   124   121    1
    98   106   101   am
    99   121   122    1
   100    64    65   ar
   101   104   103    1
   102    63    65   ar
   103   102   101    2
   104    97    96    1
   105   101   100    1
   106    98    96    1
   107    89    88    1
   108   122   123    2
   109    96    95    1
   110   103   100    1
   111   103   105    1
   112    95    92    1
   113   100    99    1
   114    99    93   am
   115    90    88    1
   116    88    85    1
   117    92    93    1
   118    92    91    1
   119    93    94    2
   120   140   139   ar
   121   140   138   ar
   122    85    86    1
   123    85    84    1
   124   139   137   ar
   125    86    87    2
   126   138   136   ar
   127   137   134   ar
   128   136   134   ar
   129   136   135   ar
   130   134   132   ar
   131   135   133   ar
   132   132   133   ar
   133   132   131    1
   134   128   131    1
   135   128   129    1
   136   128   127    1
   137   129   130    2
