@<TRIPOS>MOLECULE
tmp/2q1tA01.pdb
 105 98 0 0 0
SMALL
GASTEIGER

@<TRIPOS>ATOM
      1  N          6.6850   56.3290   31.1470 N.3    87  ASN87      -0.1240
      2  CA         6.5740   56.8540   29.7720 C.3    87  ASN87       0.1653
      3  C          7.1930   55.9750   28.6930 C.2    87  ASN87       0.2266
      4  O          6.5300   55.6010   27.7210 O.2    87  ASN87      -0.2867
      5  CB         7.2610   58.2150   29.6800 C.3    87  ASN87       0.1155
      6  CG         6.4550   59.2920   30.3420 C.2    87  ASN87       0.2627
      7  OD1        7.0110   60.1690   31.0040 O.2    87  ASN87      -0.2716
      8  ND2        5.1230   59.2420   30.1700 N.am   87  ASN87      -0.0877
      9  N          2.6920   62.9520   25.6050 N.3   139  ASP139     -0.1239
     10  CA         3.9060   62.4150   24.9850 C.3   139  ASP139      0.1674
     11  C          3.9230   60.8770   24.8910 C.2   139  ASP139      0.2266
     12  O          4.7540   60.3000   24.1760 O.2   139  ASP139     -0.2867
     13  CB         5.1550   62.9010   25.7570 C.3   139  ASP139      0.1410
     14  CG         5.3870   62.1540   27.0810 C.2   139  ASP139      0.3668
     15  OD1        4.4410   61.8980   27.8670 O.co2 139  ASP139     -0.2456
     16  OD2        6.5650   61.8370   27.3720 O.co2 139  ASP139     -0.2456
     17  N          8.0410   63.7820   39.8830 N.3   171  ASN171     -0.1240
     18  CA         9.4460   63.8670   40.3600 C.3   171  ASN171      0.1653
     19  C          9.6320   63.5130   41.8200 C.2   171  ASN171      0.2266
     20  O         10.3890   64.1590   42.5740 O.2   171  ASN171     -0.2867
     21  CB         9.9930   65.2410   39.9850 C.3   171  ASN171      0.1155
     22  CG         9.9710   65.4460   38.4680 C.2   171  ASN171      0.2627
     23  OD1        9.2740   66.2960   37.9730 O.2   171  ASN171     -0.2716
     24  ND2       10.7100   64.6090   37.7410 N.am  171  ASN171     -0.0877
     25  N         14.6430   56.5880   36.8640 N.3   194  ASN194     -0.1225
     26  CA        14.5360   58.0340   37.0730 C.3   194  ASN194      0.1785
     27  C         15.9100   58.6440   37.3200 C.2   194  ASN194      0.2597
     28  O         16.8510   57.9300   37.7280 O.2   194  ASN194     -0.2718
     29  CB        13.5720   58.3710   38.2440 C.3   194  ASN194      0.1169
     30  CG        12.0940   58.3200   37.8320 C.2   194  ASN194      0.2627
     31  OD1       11.6520   59.0540   36.9460 O.2   194  ASN194     -0.2716
     32  ND2       11.3230   57.4710   38.5040 N.am  194  ASN194     -0.0877
     33  N         16.0410   59.9430   37.0520 N.am  195  VAL195     -0.1980
     34  CA        17.3440   60.6190   37.1850 C.3   195  VAL195      0.1595
     35  C         17.9810   60.4970   38.5930 C.2   195  VAL195      0.2287
     36  O         19.1680   60.2030   38.7050 O.2   195  VAL195     -0.2864
     37  CB        17.2740   62.0790   36.7190 C.3   195  VAL195      0.0276
     38  CG1       16.3240   62.9090   37.6120 C.3   195  VAL195      0.0022
     39  CG2       18.6570   62.6850   36.6310 C.3   195  VAL195      0.0022
     40  N         19.3270   56.9290   39.4320 N.3   198  THR198     -0.1203
     41  CA        20.3920   56.6830   38.4380 C.3   198  THR198      0.1994
     42  C         21.6450   57.4020   38.8650 C.2   198  THR198      0.2617
     43  O         22.7310   56.8160   38.9250 O.2   198  THR198     -0.2717
     44  CB        19.9790   57.1560   37.0440 C.3   198  THR198      0.1784
     45  OG1       18.8390   56.4030   36.6140 O.3   198  THR198     -0.2211
     46  CG2       21.1350   56.9960   36.0170 C.3   198  THR198      0.0376
     47  N         21.4870   58.6800   39.1930 N.am  199  PHE199     -0.1975
     48  CA        22.5950   59.4940   39.7070 C.3   199  PHE199      0.1639
     49  C         23.1860   58.9880   41.0180 C.2   199  PHE199      0.2290
     50  O         24.4100   58.9290   41.1470 O.2   199  PHE199     -0.2864
     51  CB        22.1630   60.9520   39.8530 C.3   199  PHE199      0.0560
     52  CG        22.1650   61.7130   38.5650 C.ar  199  PHE199     -0.0200
     53  CD1       22.4050   61.0640   37.3380 C.ar  199  PHE199     -0.0042
     54  CD2       21.9370   63.0830   38.5710 C.ar  199  PHE199     -0.0042
     55  CE1       22.4040   61.7710   36.1390 C.ar  199  PHE199     -0.0003
     56  CE2       21.9450   63.8090   37.3730 C.ar  199  PHE199     -0.0003
     57  CZ        22.1810   63.1510   36.1530 C.ar  199  PHE199     -0.0000
     58  N         25.8790   61.1080   33.9590 N.3   210  PRO210     -0.2102
     59  CA        25.6360   61.6020   32.6120 C.3   210  PRO210      0.1504
     60  C         24.6260   62.7430   32.6360 C.2   210  PRO210      0.2576
     61  O         23.4270   62.5000   32.6890 O.2   210  PRO210     -0.2718
     62  CB        25.0690   60.3810   31.8740 C.3   210  PRO210      0.0282
     63  CG        24.7610   59.3540   32.9200 C.3   210  PRO210      0.0208
     64  CD        25.0650   59.9200   34.2680 C.3   210  PRO210      0.0893
     65  N         25.1220   63.9770   32.6350 N.am  211  LEU211     -0.1966
     66  CA        24.2650   65.1560   32.5010 C.3   211  LEU211      0.1728
     67  C         23.8620   65.3250   31.0480 C.2   211  LEU211      0.2616
     68  O         24.7230   65.4400   30.1690 O.2   211  LEU211     -0.2715
     69  CB        24.9940   66.4260   32.9540 C.3   211  LEU211      0.0311
     70  CG        24.8720   66.9530   34.3810 C.3   211  LEU211      0.0022
     71  CD1       25.4230   68.3700   34.3970 C.3   211  LEU211      0.0001
     72  CD2       23.4160   66.9180   34.8730 C.3   211  LEU211      0.0001
     73  N         22.5610   65.3250   30.7960 N.am  212  GLU212     -0.1977
     74  CA        22.0470   65.5850   29.4560 C.3   212  GLU212      0.1602
     75  C         21.8590   67.0830   29.2630 C.2   212  GLU212      0.2287
     76  O         21.3170   67.7660   30.1430 O.2   212  GLU212     -0.2864
     77  CB        20.7430   64.8180   29.2090 C.3   212  GLU212      0.0415
     78  CG        20.9610   63.3590   28.7940 C.3   212  GLU212      0.1163
     79  CD        19.7650   62.4670   29.0900 C.2   212  GLU212      0.3649
     80  OE1       18.6500   62.9880   29.3030 O.co2 212  GLU212     -0.2457
     81  OE2       19.9440   61.2370   29.1170 O.co2 212  GLU212     -0.2457
     82  N         17.7450   71.6110   32.5100 N.3   217  ALA217     -0.1245
     83  CA        16.3290   71.3220   32.7910 C.3   217  ALA217      0.1562
     84  C         16.0950   71.3430   34.3060 C.2   217  ALA217      0.2260
     85  O         16.9530   70.8940   35.0620 O.2   217  ALA217     -0.2867
     86  CB        15.9350   69.9820   32.1970 C.3   217  ALA217      0.0290
     87  N         13.3080   70.6190   37.6900 N.3   219  ARG219     -0.1245
     88  CA        12.1540   69.8350   38.1350 C.3   219  ARG219      0.1563
     89  C         11.8400   70.2210   39.5790 C.2   219  ARG219      0.2260
     90  O         12.7530   70.5920   40.3400 O.2   219  ARG219     -0.2867
     91  CB        12.4830   68.3310   38.0920 C.3   219  ARG219      0.0307
     92  CG        12.8010   67.7560   36.6960 C.3   219  ARG219      0.0489
     93  CD        11.6240   67.8930   35.7400 C.3   219  ARG219      0.2205
     94  NE        11.8660   67.1650   34.4920 N.pl3 219  ARG219     -0.0865
     95  CZ        12.2030   67.7280   33.3320 C.cat 219  ARG219      0.5346
     96  NH1       12.3140   69.0420   33.2340 N.pl3 219  ARG219      0.1354
     97  NH2       12.3980   66.9700   32.2580 N.pl3 219  ARG219      0.1354
     98  N         18.8570   69.8180   37.1210 N.3   254  ILE254     -0.1245
     99  CA        19.5580   68.5230   37.0980 C.3   254  ILE254      0.1561
    100  C         21.0530   68.6730   37.3900 C.2   254  ILE254      0.2260
    101  O         21.6220   67.8460   38.1080 O.2   254  ILE254     -0.2867
    102  CB        19.2750   67.7670   35.7740 C.3   254  ILE254      0.0252
    103  CG1       17.7680   67.6790   35.5560 C.3   254  ILE254      0.0019
    104  CG2       19.9420   66.3780   35.7510 C.3   254  ILE254      0.0019
    105  CD1       16.9950   67.0910   36.7450 C.3   254  ILE254      0.0001
@<TRIPOS>BOND
     1    12    11    2
     2    11    10    1
     3    10     9    1
     4    10    13    1
     5    13    14    1
     6    14    16   ar
     7    14    15   ar
     8     4     3    2
     9     3     2    1
    10    78    79    1
    11    78    77    1
    12    79    81   ar
    13    79    80   ar
    14    77    74    1
    15    75    74    1
    16    75    76    2
    17    74    73    1
    18     5     2    1
    19     5     6    1
    20     2     1    1
    21    68    67    2
    22     8     6   am
    23     6     7    2
    24    73    67   am
    25    67    66    1
    26    62    59    1
    27    62    63    1
    28    86    83    1
    29    97    95    1
    30    66    65    1
    31    66    69    1
    32    82    83    1
    33    59    60    1
    34    59    58    1
    35    65    60   am
    36    60    61    2
    37    83    84    1
    38    63    64    1
    39    69    70    1
    40    96    95    1
    41    95    94    2
    42    58    64    1
    43    84    85    2
    44    70    71    1
    45    70    72    1
    46    94    93    1
    47   103   102    1
    48   103   105    1
    49    93    92    1
    50   104   102    1
    51   102    99    1
    52    46    44    1
    53    55    57   ar
    54    55    53   ar
    55    57    56   ar
    56    45    44    1
    57    39    37    1
    58    92    91    1
    59    37    34    1
    60    37    38    1
    61    25    26    1
    62    31    30    2
    63    44    41    1
    64    33    34    1
    65    33    27   am
    66    26    27    1
    67    26    29    1
    68    99    98    1
    69    99   100    1
    70    34    35    1
    71    27    28    2
    72    53    52   ar
    73    56    54   ar
    74   100   101    2
    75    87    88    1
    76    24    22   am
    77    30    29    1
    78    30    32   am
    79    23    22    2
    80    91    88    1
    81    88    89    1
    82    41    42    1
    83    41    40    1
    84    22    21    1
    85    52    54   ar
    86    52    51    1
    87    35    36    2
    88    42    43    2
    89    42    47   am
    90    47    48    1
    91    89    90    2
    92    48    51    1
    93    48    49    1
    94    17    18    1
    95    21    18    1
    96    18    19    1
    97    49    50    2
    98    19    20    2
