@<TRIPOS>MOLECULE
tmp/2q1uA01.pdb
 108 103 0 0 0
SMALL
GASTEIGER

@<TRIPOS>ATOM
      1  N          4.5050   24.7610   30.7720 N.3   171  ASN171     -0.1240
      2  CA         3.5260   24.8290   31.8800 C.3   171  ASN171      0.1653
      3  C          2.1330   24.3760   31.4750 C.2   171  ASN171      0.2266
      4  O          1.1110   24.9370   31.8620 O.2   171  ASN171     -0.2867
      5  CB         3.5500   26.2550   32.4540 C.3   171  ASN171      0.1155
      6  CG         4.9310   26.6010   32.9930 C.2   171  ASN171      0.2627
      7  OD1        5.4530   25.8690   33.8190 O.2   171  ASN171     -0.2716
      8  ND2        5.4970   27.7040   32.5510 N.am  171  ASN171     -0.0877
      9  N          5.4750   14.8520   39.1060 N.3   193  ARG193     -0.1231
     10  CA         5.8710   15.2670   37.7610 C.3   193  ARG193      0.1694
     11  C          5.9360   16.7510   37.6300 C.2   193  ARG193      0.2592
     12  O          6.8790   17.2900   37.0240 O.2   193  ARG193     -0.2718
     13  CB         4.8270   14.7580   36.7630 C.3   193  ARG193      0.0321
     14  CG         4.8460   13.2440   36.5860 C.3   193  ARG193      0.0489
     15  CD         3.6930   12.8070   35.6860 C.3   193  ARG193      0.2205
     16  NE         3.6410   13.4430   34.3640 N.pl3 193  ARG193     -0.0865
     17  CZ         3.8740   12.7960   33.2110 C.cat 193  ARG193      0.5346
     18  NH1        4.2860   11.5110   33.2030 N.pl3 193  ARG193      0.1354
     19  NH2        3.6900   13.4280   32.0540 N.pl3 193  ARG193      0.1354
     20  N          4.9180   17.4240   38.1540 N.am  194  ASN194     -0.1960
     21  CA         4.7730   18.8600   37.9360 C.3   194  ASN194      0.1819
     22  C          3.9300   19.4920   39.0540 C.2   194  ASN194      0.2621
     23  O          3.1760   18.7830   39.7420 O.2   194  ASN194     -0.2715
     24  CB         4.1120   19.1330   36.5570 C.3   194  ASN194      0.1195
     25  CG         5.1120   19.1140   35.3930 C.2   194  ASN194      0.2630
     26  OD1        6.0400   19.9340   35.3460 O.2   194  ASN194     -0.2716
     27  ND2        4.9400   18.1610   34.4590 N.am  194  ASN194     -0.0877
     28  N          4.0440   20.8120   39.2210 N.am  195  VAL195     -0.1977
     29  CA         3.4320   21.4750   40.3810 C.3   195  VAL195      0.1596
     30  C          1.8980   21.3170   40.4340 C.2   195  VAL195      0.2287
     31  O          1.3350   21.0670   41.5220 O.2   195  VAL195     -0.2864
     32  CB         3.8670   22.9650   40.5250 C.3   195  VAL195      0.0276
     33  CG1        3.4180   23.7990   39.3260 C.3   195  VAL195      0.0022
     34  CG2        3.4090   23.5180   41.8440 C.3   195  VAL195      0.0022
     35  N          0.7690   17.7740   41.3760 N.3   198  THR198     -0.1203
     36  CA         1.2410   17.5040   42.7440 C.3   198  THR198      0.1994
     37  C          0.3180   18.1920   43.7530 C.2   198  THR198      0.2617
     38  O         -0.1420   17.5600   44.7180 O.2   198  THR198     -0.2717
     39  CB         2.7100   17.9750   42.9340 C.3   198  THR198      0.1784
     40  OG1        3.5530   17.1830   42.0970 O.3   198  THR198     -0.2211
     41  CG2        3.1430   17.8740   44.4170 C.3   198  THR198      0.0376
     42  N          0.0030   19.4690   43.5050 N.am  199  PHE199     -0.1975
     43  CA        -0.8640   20.2320   44.3930 C.3   199  PHE199      0.1639
     44  C         -2.3050   19.7010   44.4070 C.2   199  PHE199      0.2290
     45  O         -2.9220   19.6160   45.4680 O.2   199  PHE199     -0.2864
     46  CB        -0.9150   21.7120   43.9540 C.3   199  PHE199      0.0560
     47  CG         0.2530   22.5500   44.4140 C.ar  199  PHE199     -0.0200
     48  CD1        1.3190   22.0000   45.0970 C.ar  199  PHE199     -0.0042
     49  CD2        0.2460   23.9230   44.1650 C.ar  199  PHE199     -0.0042
     50  CE1        2.4040   22.7690   45.5130 C.ar  199  PHE199     -0.0003
     51  CE2        1.3450   24.7200   44.5530 C.ar  199  PHE199     -0.0003
     52  CZ         2.4110   24.1510   45.2680 C.ar  199  PHE199     -0.0000
     53  N          2.9740   22.0600   49.7100 N.3   210  PRO210     -0.2102
     54  CA         4.3520   22.4210   49.9910 C.3   210  PRO210      0.1504
     55  C          4.7650   23.5520   49.0650 C.2   210  PRO210      0.2576
     56  O          5.2300   23.3430   47.9510 O.2   210  PRO210     -0.2718
     57  CB         5.1180   21.1350   49.6880 C.3   210  PRO210      0.0282
     58  CG         4.3140   20.4730   48.6280 C.3   210  PRO210      0.0208
     59  CD         2.8800   20.8140   48.9220 C.3   210  PRO210      0.0893
     60  N          4.5590   24.7550   49.5420 N.am  211  LEU211     -0.1966
     61  CA         4.7650   25.9350   48.7480 C.3   211  LEU211      0.1728
     62  C          6.1740   26.4520   48.9580 C.2   211  LEU211      0.2616
     63  O          6.5870   26.7250   50.0970 O.2   211  LEU211     -0.2715
     64  CB         3.7250   27.0030   49.1350 C.3   211  LEU211      0.0311
     65  CG         3.5880   28.2150   48.2640 C.3   211  LEU211      0.0022
     66  CD1        3.0510   27.8640   46.8640 C.3   211  LEU211      0.0001
     67  CD2        2.6970   29.2420   48.9850 C.3   211  LEU211      0.0001
     68  N          6.9180   26.5880   47.8620 N.am  212  GLU212     -0.1963
     69  CA         8.3440   26.9230   47.9440 C.3   212  GLU212      0.1733
     70  C          8.5530   28.4260   47.7840 C.2   212  GLU212      0.2616
     71  O          7.9540   29.0400   46.8930 O.2   212  GLU212     -0.2715
     72  CB         9.1560   26.1150   46.9050 C.3   212  GLU212      0.0429
     73  CG         9.1250   24.5800   47.1370 C.3   212  GLU212      0.1163
     74  CD         9.6460   23.7500   45.9460 C.2   212  GLU212      0.3649
     75  OE1        9.8300   24.2910   44.8310 O.co2 212  GLU212     -0.2457
     76  OE2        9.8690   22.5310   46.1140 O.co2 212  GLU212     -0.2457
     77  N          9.3740   29.0140   48.6570 N.am  213  ASN213     -0.1972
     78  CA         9.7620   30.4370   48.5680 C.3   213  ASN213      0.1688
     79  C          8.6060   31.4510   48.6420 C.2   213  ASN213      0.2292
     80  O          8.6730   32.5510   48.0630 O.2   213  ASN213     -0.2864
     81  CB        10.5820   30.6860   47.2870 C.3   213  ASN213      0.1181
     82  CG        11.8830   29.8810   47.2410 C.2   213  ASN213      0.2629
     83  OD1       12.1100   29.0850   46.3130 O.2   213  ASN213     -0.2716
     84  ND2       12.7440   30.0920   48.2330 N.am  213  ASN213     -0.0877
     85  N          7.0270   32.9330   42.5500 N.3   217  ALA217     -0.1245
     86  CA         7.3560   32.6460   41.1660 C.3   217  ALA217      0.1562
     87  C          6.0680   32.6290   40.3540 C.2   217  ALA217      0.2260
     88  O          5.0310   32.2140   40.8690 O.2   217  ALA217     -0.2867
     89  CB         8.0420   31.2620   41.0790 C.3   217  ALA217      0.0290
     90  N          4.1290   31.5170   36.4890 N.3   219  ARG219     -0.1245
     91  CA         4.2080   30.6960   35.2780 C.3   219  ARG219      0.1563
     92  C          3.0220   31.0300   34.3630 C.2   219  ARG219      0.2260
     93  O          1.9450   31.3450   34.8430 O.2   219  ARG219     -0.2867
     94  CB         4.1310   29.2130   35.6540 C.3   219  ARG219      0.0307
     95  CG         5.3230   28.6680   36.4680 C.3   219  ARG219      0.0489
     96  CD         6.6400   28.9230   35.7470 C.3   219  ARG219      0.2205
     97  NE         7.8070   28.2690   36.3650 N.pl3 219  ARG219     -0.0865
     98  CZ         8.6710   28.8650   37.1960 C.cat 219  ARG219      0.5346
     99  NH1        8.5150   30.1340   37.5600 N.pl3 219  ARG219      0.1354
    100  NH2        9.7050   28.1790   37.6680 N.pl3 219  ARG219      0.1354
    101  N          2.6320   30.8180   41.8350 N.3   254  ILE254     -0.1245
    102  CA         2.4340   29.4820   42.4240 C.3   254  ILE254      0.1561
    103  C          1.5730   29.6040   43.6850 C.2   254  ILE254      0.2260
    104  O          0.7290   28.7410   43.9730 O.2   254  ILE254     -0.2867
    105  CB         3.7700   28.7930   42.7060 C.3   254  ILE254      0.0252
    106  CG1        4.6300   28.8020   41.4240 C.3   254  ILE254      0.0019
    107  CG2        3.5140   27.4010   43.2900 C.3   254  ILE254      0.0019
    108  CD1        3.9710   28.1470   40.2050 C.3   254  ILE254      0.0001
@<TRIPOS>BOND
     1     1     2    1
     2     3     4    2
     3     3     2    1
     4     2     5    1
     5    19    17    1
     6     5     6    1
     7     8     6   am
     8     6     7    2
     9    18    17    1
    10    17    16    2
    11    92    93    2
    12    92    91    1
    13    16    15    1
    14    27    25   am
    15    91    94    1
    16    91    90    1
    17    26    25    2
    18    25    24    1
    19    94    95    1
    20    15    14    1
    21    96    97    1
    22    96    95    1
    23    97    98    2
    24    24    21    1
    25    14    13    1
    26    13    10    1
    27    12    11    2
    28    98    99    1
    29    98   100    1
    30    11    10    1
    31    11    20   am
    32    10     9    1
    33    21    20    1
    34    21    22    1
    35    22    28   am
    36    22    23    2
    37    28    29    1
    38    33    32    1
    39   108   106    1
    40    87    88    2
    41    87    86    1
    42    29    30    1
    43    29    32    1
    44    30    31    2
    45    32    34    1
    46    89    86    1
    47    86    85    1
    48    35    36    1
    49   106   105    1
    50   101   102    1
    51    40    39    1
    52   102   105    1
    53   102   103    1
    54   105   107    1
    55    36    39    1
    56    36    37    1
    57    39    41    1
    58    42    37   am
    59    42    43    1
    60   103   104    2
    61    37    38    2
    62    46    43    1
    63    46    47    1
    64    49    47   ar
    65    49    51   ar
    66    43    44    1
    67    44    45    2
    68    47    48   ar
    69    51    52   ar
    70    75    74   ar
    71    48    50   ar
    72    52    50   ar
    73    74    76   ar
    74    74    73    1
    75    83    82    2
    76    66    65    1
    77    71    70    2
    78    72    73    1
    79    72    69    1
    80    82    81    1
    81    82    84   am
    82    81    78    1
    83    70    69    1
    84    70    77   am
    85    68    69    1
    86    68    62   am
    87    56    55    2
    88    80    79    2
    89    65    67    1
    90    65    64    1
    91    78    79    1
    92    78    77    1
    93    58    59    1
    94    58    57    1
    95    61    62    1
    96    61    64    1
    97    61    60    1
    98    59    53    1
    99    62    63    2
   100    55    60   am
   101    55    54    1
   102    57    54    1
   103    53    54    1
