@<TRIPOS>MOLECULE
tmp/2q1vA00.pdb
 193 180 0 0 0
SMALL
GASTEIGER

@<TRIPOS>ATOM
      1  N         -7.2400  -39.8920  -18.3050 N.3    30  LEU30      -0.1245
      2  CA        -6.7280  -38.5960  -17.8620 C.3    30  LEU30       0.1561
      3  C         -5.5330  -38.1310  -18.6850 C.2    30  LEU30       0.2260
      4  O         -5.4310  -36.9490  -19.0290 O.2    30  LEU30      -0.2867
      5  CB        -6.3610  -38.6470  -16.3720 C.3    30  LEU30       0.0270
      6  CG        -7.5340  -38.9810  -15.4420 C.3    30  LEU30       0.0019
      7  CD1       -7.0880  -38.7930  -13.9930 C.3    30  LEU30       0.0001
      8  CD2       -8.7290  -38.0800  -15.7450 C.3    30  LEU30       0.0001
      9  N         -6.8960  -36.8970  -21.9180 N.3    33  LEU33      -0.1231
     10  CA        -7.5210  -35.5850  -21.7990 C.3    33  LEU33       0.1693
     11  C         -6.4590  -34.4900  -21.6860 C.2    33  LEU33       0.2592
     12  O         -6.6310  -33.3970  -22.2250 O.2    33  LEU33      -0.2718
     13  CB        -8.4560  -35.5350  -20.5790 C.3    33  LEU33       0.0284
     14  CG        -9.7620  -36.3300  -20.7020 C.3    33  LEU33       0.0019
     15  CD1      -10.5720  -36.1900  -19.4160 C.3    33  LEU33       0.0001
     16  CD2      -10.5750  -35.8140  -21.8820 C.3    33  LEU33       0.0001
     17  N         -5.3640  -34.7770  -20.9870 N.am   34  ASN34      -0.1974
     18  CA        -4.3020  -33.7910  -20.8420 C.3    34  ASN34       0.1688
     19  C         -3.6010  -33.5480  -22.1780 C.2    34  ASN34       0.2292
     20  O         -3.1910  -32.4260  -22.4730 O.2    34  ASN34      -0.2864
     21  CB        -3.2980  -34.2310  -19.7720 C.3    34  ASN34       0.1181
     22  CG        -3.8630  -34.0870  -18.3650 C.2    34  ASN34       0.2629
     23  OD1       -4.7360  -33.2580  -18.1330 O.2    34  ASN34      -0.2716
     24  ND2       -3.3620  -34.8800  -17.4260 N.am   34  ASN34      -0.0877
     25  N         -5.0500  -33.7440  -25.0340 N.3    36  LEU36      -0.1231
     26  CA        -6.0070  -32.9280  -25.7670 C.3    36  LEU36       0.1693
     27  C         -5.8670  -31.4810  -25.3130 C.2    36  LEU36       0.2591
     28  O         -5.9080  -30.5620  -26.1270 O.2    36  LEU36      -0.2718
     29  CB        -7.4380  -33.4130  -25.5070 C.3    36  LEU36       0.0284
     30  CG        -8.5810  -32.5070  -25.9810 C.3    36  LEU36       0.0019
     31  CD1       -8.5190  -32.3260  -27.4920 C.3    36  LEU36       0.0001
     32  CD2       -9.9100  -33.1080  -25.5650 C.3    36  LEU36       0.0001
     33  N         -5.7030  -31.2930  -24.0030 N.am   37  ALA37      -0.1980
     34  CA        -5.5550  -29.9640  -23.4160 C.3    37  ALA37       0.1597
     35  C         -4.3360  -29.2430  -23.9830 C.2    37  ALA37       0.2287
     36  O         -4.3810  -28.0430  -24.2580 O.2    37  ALA37      -0.2864
     37  CB        -5.4320  -30.0770  -21.9010 C.3    37  ALA37       0.0319
     38  N         -5.2300  -28.0530  -27.3600 N.3    40  GLN40      -0.1245
     39  CA        -6.1760  -26.9460  -27.2740 C.3    40  GLN40       0.1566
     40  C         -5.4780  -25.6630  -26.8300 C.2    40  GLN40       0.2260
     41  O         -5.8550  -24.5700  -27.2480 O.2    40  GLN40      -0.2867
     42  CB        -7.3130  -27.2790  -26.3000 C.3    40  GLN40       0.0367
     43  CG        -8.4190  -28.1230  -26.9160 C.3    40  GLN40       0.0905
     44  CD        -9.5920  -28.3260  -25.9760 C.2    40  GLN40       0.2608
     45  OE1       -9.8380  -27.5070  -25.0880 O.2    40  GLN40      -0.2717
     46  NE2      -10.3360  -29.4110  -26.1800 N.am   40  GLN40      -0.0878
     47  N         -6.9860  -20.4070  -18.5260 N.3    70  TRP70      -0.1227
     48  CA        -7.0650  -21.4730  -19.5220 C.3    70  TRP70       0.1737
     49  C         -8.0760  -22.5670  -19.1670 C.2    70  TRP70       0.2595
     50  O         -8.7980  -23.0530  -20.0370 O.2    70  TRP70      -0.2718
     51  CB        -5.6880  -22.0980  -19.7840 C.3    70  TRP70       0.0564
     52  CG        -5.1270  -22.9030  -18.6710 C.ar   70  TRP70       0.0003
     53  CD1       -4.3190  -22.4640  -17.6640 C.ar   70  TRP70       0.0946
     54  CD2       -5.3010  -24.3090  -18.4650 C.ar   70  TRP70       0.0152
     55  NE1       -3.9720  -23.5110  -16.8440 N.ar   70  TRP70      -0.2442
     56  CE2       -4.5630  -24.6550  -17.3130 C.ar   70  TRP70       0.0810
     57  CE3       -6.0090  -25.3100  -19.1430 C.ar   70  TRP70       0.0012
     58  CZ2       -4.5100  -25.9680  -16.8220 C.ar   70  TRP70       0.0191
     59  CZ3       -5.9580  -26.6140  -18.6560 C.ar   70  TRP70       0.0001
     60  CH2       -5.2130  -26.9300  -17.5070 C.ar   70  TRP70       0.0015
     61  N         -8.1450  -22.9510  -17.8980 N.am   71  MET71      -0.1979
     62  CA        -9.0810  -24.0030  -17.4930 C.3    71  MET71       0.1605
     63  C        -10.5310  -23.5670  -17.7060 C.2    71  MET71       0.2287
     64  O        -11.3620  -24.3490  -18.1630 O.2    71  MET71      -0.2864
     65  CB        -8.8580  -24.3860  -16.0180 C.3    71  MET71       0.0413
     66  CG        -9.7570  -25.5160  -15.5040 C.3    71  MET71       0.0598
     67  SD        -9.4700  -27.1220  -16.3220 S.3    71  MET71      -0.1393
     68  CE        -8.0240  -27.7230  -15.4070 C.3    71  MET71       0.0692
     69  N        -11.3300  -23.6410  -21.5580 N.3    74  MET74      -0.1230
     70  CA       -11.5230  -24.9820  -22.0970 C.3    74  MET74       0.1702
     71  C        -12.7940  -25.6420  -21.5810 C.2    74  MET74       0.2592
     72  O        -13.4880  -26.3310  -22.3310 O.2    74  MET74      -0.2718
     73  CB       -10.2920  -25.8390  -21.8060 C.3    74  MET74       0.0401
     74  CG        -9.0830  -25.3970  -22.6360 C.3    74  MET74       0.0596
     75  SD        -7.5880  -26.3640  -22.3680 S.3    74  MET74      -0.1393
     76  CE        -6.3060  -25.2440  -23.0320 C.3    74  MET74       0.0692
     77  N        -13.1090  -25.4250  -20.3080 N.am   75  ALA75      -0.1980
     78  CA       -14.3230  -25.9920  -19.7360 C.3    75  ALA75       0.1597
     79  C        -15.5610  -25.3340  -20.3520 C.2    75  ALA75       0.2287
     80  O        -16.5700  -25.9970  -20.5810 O.2    75  ALA75      -0.2864
     81  CB       -14.3240  -25.8010  -18.2190 C.3    75  ALA75       0.0319
     82  N        -15.9630  -26.6440  -23.7950 N.3    78  LEU78      -0.1245
     83  CA       -16.4150  -28.0300  -23.6690 C.3    78  LEU78       0.1561
     84  C        -17.9320  -28.0090  -23.5050 C.2    78  LEU78       0.2260
     85  O        -18.6500  -28.7940  -24.1280 O.2    78  LEU78      -0.2867
     86  CB       -15.7740  -28.6950  -22.4490 C.3    78  LEU78       0.0270
     87  CG       -16.4250  -30.0030  -21.9850 C.3    78  LEU78       0.0019
     88  CD1      -16.3050  -31.0590  -23.0770 C.3    78  LEU78       0.0001
     89  CD2      -15.7440  -30.4830  -20.7050 C.3    78  LEU78       0.0001
     90  N        -19.5600  -27.2720  -26.9540 N.3    81  ARG81      -0.1245
     91  CA       -19.5210  -28.4230  -27.8500 C.3    81  ARG81       0.1563
     92  C        -20.5000  -29.5050  -27.3970 C.2    81  ARG81       0.2260
     93  O        -21.2020  -30.1090  -28.2130 O.2    81  ARG81      -0.2867
     94  CB       -18.1060  -29.0080  -27.9180 C.3    81  ARG81       0.0307
     95  CG       -17.0790  -28.0950  -28.5680 C.3    81  ARG81       0.0489
     96  CD       -15.7900  -28.8440  -28.8600 C.3    81  ARG81       0.2205
     97  NE       -15.1710  -29.4220  -27.6670 N.pl3  81  ARG81      -0.0865
     98  CZ       -14.3940  -28.7530  -26.8160 C.cat  81  ARG81       0.5346
     99  NH1      -14.1310  -27.4640  -27.0110 N.pl3  81  ARG81       0.1354
    100  NH2      -13.8620  -29.3800  -25.7740 N.pl3  81  ARG81       0.1354
    101  N        -15.4960  -33.7910  -25.3970 N.3    93  PHE93      -0.1241
    102  CA       -14.1430  -33.2530  -25.2840 C.3    93  PHE93       0.1605
    103  C        -13.5320  -33.0360  -26.6710 C.2    93  PHE93       0.2264
    104  O        -12.8990  -32.0080  -26.9380 O.2    93  PHE93      -0.2867
    105  CB       -13.2600  -34.2000  -24.4630 C.3    93  PHE93       0.0534
    106  CG       -13.5310  -34.1430  -22.9740 C.ar   93  PHE93      -0.0203
    107  CD1      -14.2610  -35.1450  -22.3420 C.ar   93  PHE93      -0.0042
    108  CD2      -13.0450  -33.0850  -22.2090 C.ar   93  PHE93      -0.0042
    109  CE1      -14.5060  -35.1010  -20.9590 C.ar   93  PHE93      -0.0003
    110  CE2      -13.2810  -33.0220  -20.8190 C.ar   93  PHE93      -0.0003
    111  CZ       -14.0120  -34.0340  -20.1950 C.ar   93  PHE93      -0.0000
    112  N        -13.2470  -39.0190  -11.8470 N.3   109  MET109     -0.1245
    113  CA       -13.6830  -37.6560  -11.5460 C.3   109  MET109      0.1570
    114  C        -15.1250  -37.4330  -11.9990 C.2   109  MET109      0.2261
    115  O        -15.4550  -36.3940  -12.5720 O.2   109  MET109     -0.2867
    116  CB       -12.7580  -36.6170  -12.2040 C.3   109  MET109      0.0387
    117  CG       -12.5750  -36.7510  -13.7180 C.3   109  MET109      0.0595
    118  SD       -12.0030  -35.1920  -14.4280 S.3   109  MET109     -0.1393
    119  CE       -12.1450  -35.5260  -16.2060 C.3   109  MET109      0.0692
    120  N        -16.6350  -34.0660  -11.1110 N.3   112  LEU112     -0.1245
    121  CA       -16.1780  -32.9330  -11.9170 C.3   112  LEU112      0.1561
    122  C        -16.8260  -33.0030  -13.2980 C.2   112  LEU112      0.2260
    123  O        -17.1800  -31.9770  -13.8810 O.2   112  LEU112     -0.2867
    124  CB       -14.6520  -32.9300  -12.0400 C.3   112  LEU112      0.0270
    125  CG       -13.9070  -32.6410  -10.7300 C.3   112  LEU112      0.0019
    126  CD1      -12.4050  -32.7120  -10.9520 C.3   112  LEU112      0.0001
    127  CD2      -14.3070  -31.2600  -10.2200 C.3   112  LEU112      0.0001
    128  N        -19.0640  -30.0860  -15.1090 N.3   116  MET116     -0.1245
    129  CA       -18.8620  -29.5670  -16.4560 C.3   116  MET116      0.1570
    130  C        -20.1170  -29.7660  -17.3010 C.2   116  MET116      0.2261
    131  O        -20.4860  -28.8960  -18.0830 O.2   116  MET116     -0.2867
    132  CB       -17.6580  -30.2520  -17.1100 C.3   116  MET116      0.0387
    133  CG       -16.3330  -29.8480  -16.4630 C.3   116  MET116      0.0595
    134  SD       -14.8740  -30.5350  -17.2560 S.3   116  MET116     -0.1393
    135  CE       -14.7910  -32.1460  -16.5240 C.3   116  MET116      0.0692
    136  N        -11.8700  -28.0790  -10.7500 N.3   199  LEU199     -0.1245
    137  CA       -11.1130  -28.6390  -11.8640 C.3   199  LEU199      0.1561
    138  C         -9.6160  -28.4490  -11.6050 C.2   199  LEU199      0.2260
    139  O         -8.8220  -29.3900  -11.7210 O.2   199  LEU199     -0.2867
    140  CB       -11.5070  -27.9440  -13.1790 C.3   199  LEU199      0.0270
    141  CG       -12.9850  -28.0890  -13.5780 C.3   199  LEU199      0.0019
    142  CD1      -13.2540  -27.3450  -14.8850 C.3   199  LEU199      0.0001
    143  CD2      -13.3360  -29.5720  -13.7230 C.3   199  LEU199      0.0001
    144  N         -7.9950  -30.7900   -8.8680 N.3   202  PHE202     -0.1227
    145  CA        -7.6480  -32.1370   -9.3100 C.3   202  PHE202      0.1736
    146  C         -6.4900  -32.0690  -10.3030 C.2   202  PHE202      0.2595
    147  O         -5.6530  -32.9740  -10.3550 O.2   202  PHE202     -0.2718
    148  CB        -8.8640  -32.8150   -9.9500 C.3   202  PHE202      0.0547
    149  CG        -8.6750  -34.2900  -10.2040 C.ar  202  PHE202     -0.0202
    150  CD1       -8.2400  -35.1360   -9.1840 C.ar  202  PHE202     -0.0042
    151  CD2       -8.9600  -34.8380  -11.4490 C.ar  202  PHE202     -0.0042
    152  CE1       -8.0930  -36.5080   -9.4020 C.ar  202  PHE202     -0.0003
    153  CE2       -8.8190  -36.2080  -11.6790 C.ar  202  PHE202     -0.0003
    154  CZ        -8.3860  -37.0460  -10.6570 C.ar  202  PHE202     -0.0000
    155  N         -6.4500  -30.9940  -11.0830 N.am  203  CYS203     -0.1970
    156  CA        -5.3910  -30.7890  -12.0680 C.3   203  CYS203      0.1712
    157  C         -4.0390  -30.6480  -11.3590 C.2   203  CYS203      0.2296
    158  O         -3.0690  -31.3170  -11.7130 O.2   203  CYS203     -0.2864
    159  CB        -5.6730  -29.5320  -12.8960 C.3   203  CYS203      0.0983
    160  SG        -4.4030  -29.1700  -14.1420 S.3   203  CYS203     -0.0798
    161  N         -3.0060  -34.1280   -9.5860 N.3   206  THR206     -0.1218
    162  CA        -2.4760  -35.1630  -10.4730 C.3   206  THR206      0.1862
    163  C         -1.1690  -34.7100  -11.1180 C.2   206  THR206      0.2287
    164  O         -0.2940  -35.5250  -11.4260 O.2   206  THR206     -0.2866
    165  CB        -3.4960  -35.5450  -11.5850 C.3   206  THR206      0.1770
    166  OG1       -3.9800  -34.3630  -12.2280 O.3   206  THR206     -0.2211
    167  CG2       -4.6670  -36.3050  -10.9880 C.3   206  THR206      0.0375
    168  N         -0.1110  -40.2830  -14.6440 N.3   215  VAL215     -0.1245
    169  CA        -1.0120  -39.3820  -15.3510 C.3   215  VAL215      0.1561
    170  C         -0.0930  -38.4120  -16.0720 C.2   215  VAL215      0.2260
    171  O          0.5500  -37.5590  -15.4600 O.2   215  VAL215     -0.2867
    172  CB        -1.9380  -38.6170  -14.3910 C.3   215  VAL215      0.0252
    173  CG1       -2.7960  -37.6270  -15.1820 C.3   215  VAL215      0.0019
    174  CG2       -2.8270  -39.6010  -13.6440 C.3   215  VAL215      0.0019
    175  N          1.1900  -35.4100  -18.6350 N.3   217  PHE217     -0.1241
    176  CA         0.8780  -34.0360  -19.0060 C.3   217  PHE217      0.1605
    177  C          1.8640  -33.6430  -20.0930 C.2   217  PHE217      0.2264
    178  O          3.0580  -33.9130  -19.9720 O.2   217  PHE217     -0.2867
    179  CB         1.0840  -33.0770  -17.8330 C.3   217  PHE217      0.0534
    180  CG         0.0350  -33.1710  -16.7670 C.ar  217  PHE217     -0.0203
    181  CD1        0.0280  -34.2290  -15.8710 C.ar  217  PHE217     -0.0042
    182  CD2       -0.9430  -32.1860  -16.6550 C.ar  217  PHE217     -0.0042
    183  CE1       -0.9380  -34.3060  -14.8700 C.ar  217  PHE217     -0.0003
    184  CE2       -1.9090  -32.2560  -15.6610 C.ar  217  PHE217     -0.0003
    185  CZ        -1.9030  -33.3200  -14.7650 C.ar  217  PHE217     -0.0000
    186  N          1.5340  -28.0060  -21.3410 N.3   221  LEU221     -0.1245
    187  CA         0.7650  -27.8110  -20.1190 C.3   221  LEU221      0.1561
    188  C          1.6430  -27.7540  -18.8770 C.2   221  LEU221      0.2260
    189  O          1.3700  -26.9940  -17.9470 O.2   221  LEU221     -0.2867
    190  CB        -0.2450  -28.9470  -19.9580 C.3   221  LEU221      0.0270
    191  CG        -1.6960  -28.5820  -19.6570 C.3   221  LEU221      0.0019
    192  CD1       -2.2890  -27.8620  -20.8500 C.3   221  LEU221      0.0001
    193  CD2       -2.4880  -29.8430  -19.3610 C.3   221  LEU221      0.0001
@<TRIPOS>BOND
     1    96    95    1
     2    96    97    1
     3    95    94    1
     4    93    92    2
     5    94    91    1
     6    91    92    1
     7    91    90    1
     8    97    98    2
     9    31    30    1
    10    38    39    1
    11    39    40    1
    12    39    42    1
    13    41    40    2
    14    99    98    1
    15   104   103    2
    16    43    42    1
    17    43    44    1
    18    98   100    1
    19   103   102    1
    20    46    44   am
    21    28    27    2
    22    30    32    1
    23    30    29    1
    24    44    45    2
    25    26    29    1
    26    26    27    1
    27    26    25    1
    28   101   102    1
    29    27    33   am
    30   102   105    1
    31   105   106    1
    32    36    35    2
    33    85    84    2
    34    33    34    1
    35    35    34    1
    36    82    83    1
    37    83    84    1
    38    83    86    1
    39    34    37    1
    40    88    87    1
    41    76    75    1
    42   106   107   ar
    43   106   108   ar
    44    74    75    1
    45    74    73    1
    46    20    19    2
    47    86    87    1
    48   107   109   ar
    49    72    71    2
    50    12    11    2
    51   108   110   ar
    52    19    18    1
    53    70    73    1
    54    70    71    1
    55    70    69    1
    56    87    89    1
    57     9    10    1
    58    16    14    1
    59    10    11    1
    60    10    13    1
    61    11    17   am
    62    71    77   am
    63   186   187    1
    64    17    18    1
    65   109   111   ar
    66   192   191    1
    67    18    21    1
    68   110   111   ar
    69    14    13    1
    70    14    15    1
    71    80    79    2
    72    79    78    1
    73    77    78    1
    74   187   190    1
    75   187   188    1
    76   177   178    2
    77   177   176    1
    78    50    49    2
    79   190   191    1
    80    51    48    1
    81    51    52    1
    82    21    22    1
    83    78    81    1
    84   191   193    1
    85    48    49    1
    86    48    47    1
    87    49    61   am
    88    57    59   ar
    89    57    54   ar
    90     4     3    2
    91   176   175    1
    92   176   179    1
    93   188   189    2
    94     3     2    1
    95    52    54   ar
    96    52    53   ar
    97    59    60   ar
    98    54    56   ar
    99    22    23    2
   100    22    24   am
   101     1     2    1
   102    64    63    2
   103   131   130    2
   104    61    62    1
   105     2     5    1
   106   179   180    1
   107    63    62    1
   108    53    55   ar
   109    60    58   ar
   110    62    65    1
   111    56    55   ar
   112    56    58   ar
   113   130   129    1
   114   134   135    1
   115   134   133    1
   116   132   133    1
   117   132   129    1
   118   180   182   ar
   119   180   181   ar
   120   182   184   ar
   121   129   128    1
   122     5     6    1
   123    67    66    1
   124    67    68    1
   125   119   118    1
   126   170   171    2
   127   170   169    1
   128    65    66    1
   129   181   183   ar
   130     8     6    1
   131   184   185   ar
   132     6     7    1
   133   169   168    1
   134   169   172    1
   135   173   172    1
   136   142   141    1
   137   183   185   ar
   138   118   117    1
   139   172   174    1
   140   160   159    1
   141   123   122    2
   142   143   141    1
   143   117   116    1
   144   141   140    1
   145   122   121    1
   146   140   137    1
   147   159   156    1
   148   115   114    2
   149   166   165    1
   150   116   113    1
   151   156   157    1
   152   156   155    1
   153   124   121    1
   154   124   125    1
   155   114   113    1
   156   121   120    1
   157   137   138    1
   158   137   136    1
   159   112   113    1
   160   139   138    2
   161   158   157    2
   162   153   151   ar
   163   153   154   ar
   164   165   167    1
   165   165   162    1
   166   151   149   ar
   167   164   163    2
   168   163   162    1
   169   155   146   am
   170   126   125    1
   171   125   127    1
   172   154   152   ar
   173   162   161    1
   174   147   146    2
   175   146   145    1
   176   149   148    1
   177   149   150   ar
   178   148   145    1
   179   152   150   ar
   180   145   144    1
