@<TRIPOS>MOLECULE
tmp/2q28B00.pdb
 146 144 0 0 0
SMALL
GASTEIGER

@<TRIPOS>ATOM
      1  N        -23.2660   72.5190   28.6570 N.3   368  TYR368     -0.1241
      2  CA       -22.5290   71.6970   27.6850 C.3   368  TYR368      0.1605
      3  C        -22.9550   71.9400   26.2400 C.2   368  TYR368      0.2264
      4  O        -22.1340   71.8960   25.3160 O.2   368  TYR368     -0.2867
      5  CB       -22.6430   70.2060   28.0360 C.3   368  TYR368      0.0534
      6  CG       -21.8730   69.8750   29.2980 C.ar  368  TYR368     -0.0201
      7  CD1      -20.5130   69.5930   29.2430 C.ar  368  TYR368     -0.0009
      8  CD2      -22.5020   69.8810   30.5470 C.ar  368  TYR368     -0.0009
      9  CE1      -19.7800   69.3310   30.4130 C.ar  368  TYR368      0.0417
     10  CE2      -21.7840   69.5940   31.7260 C.ar  368  TYR368      0.0417
     11  CZ       -20.4240   69.3250   31.6410 C.ar  368  TYR368      0.1957
     12  OH       -19.7080   69.0450   32.8020 O.3   368  TYR368     -0.2866
     13  N        -13.6750   62.9030   29.6400 N.3   391  GLY391     -0.1210
     14  CA       -14.5470   63.4090   30.6770 C.3   391  GLY391      0.1956
     15  C        -15.7470   62.4860   30.7440 C.2   391  GLY391      0.2612
     16  O        -15.7100   61.3490   30.2290 O.2   391  GLY391     -0.2717
     17  N        -16.7950   62.9380   31.4160 N.am  392  ALA392     -0.1965
     18  CA       -18.0490   62.2130   31.4380 C.3   392  ALA392      0.1728
     19  C        -19.0310   63.0180   30.5800 C.2   392  ALA392      0.2616
     20  O        -19.1630   62.7570   29.3920 O.2   392  ALA392     -0.2715
     21  CB       -18.5540   62.0410   32.8680 C.3   392  ALA392      0.0334
     22  N        -19.6840   64.0290   31.1600 N.am  393  ASN393     -0.1958
     23  CA       -20.5060   64.9320   30.3460 C.3   393  ASN393      0.1819
     24  C        -19.7210   65.5770   29.2060 C.2   393  ASN393      0.2621
     25  O        -20.2610   65.7360   28.1010 O.2   393  ASN393     -0.2715
     26  CB       -21.1560   66.0130   31.2090 C.3   393  ASN393      0.1195
     27  CG       -22.0430   65.4420   32.2750 C.2   393  ASN393      0.2630
     28  OD1      -21.6060   65.2070   33.4100 O.2   393  ASN393     -0.2716
     29  ND2      -23.2870   65.1890   31.9280 N.am  393  ASN393     -0.0877
     30  N        -18.4680   65.9650   29.4640 N.am  394  THR394     -0.1951
     31  CA       -17.6190   66.5830   28.4450 C.3   394  THR394      0.1897
     32  C        -17.3980   65.6380   27.2620 C.2   394  THR394      0.2313
     33  O        -17.3390   66.0610   26.1130 O.2   394  THR394     -0.2863
     34  CB       -16.2560   67.0530   29.0310 C.3   394  THR394      0.1794
     35  OG1      -16.4890   67.9610   30.1070 O.3   394  THR394     -0.2208
     36  CG2      -15.4160   67.7400   27.9850 C.3   394  THR394      0.0378
     37  N        -11.8820   51.0900   27.6930 N.3   416  TRP416     -0.1227
     38  CA       -11.8010   51.0230   29.1620 C.3   416  TRP416      0.1737
     39  C        -12.2350   52.3130   29.8520 C.2   416  TRP416      0.2596
     40  O        -12.1240   52.4030   31.0710 O.2   416  TRP416     -0.2718
     41  CB       -10.3670   50.7120   29.6120 C.3   416  TRP416      0.0564
     42  CG       -10.1470   49.3130   30.2050 C.ar  416  TRP416      0.0003
     43  CD1      -11.0560   48.3180   30.3580 C.ar  416  TRP416      0.0946
     44  CD2       -8.8950   48.7920   30.6600 C.ar  416  TRP416      0.0152
     45  NE1      -10.4480   47.1960   30.9040 N.ar  416  TRP416     -0.2442
     46  CE2       -9.1250   47.4680   31.1060 C.ar  416  TRP416      0.0810
     47  CE3       -7.6000   49.3280   30.7530 C.ar  416  TRP416      0.0012
     48  CZ2       -8.1000   46.6560   31.6150 C.ar  416  TRP416      0.0191
     49  CZ3       -6.5730   48.5240   31.2540 C.ar  416  TRP416      0.0001
     50  CH2       -6.8350   47.2000   31.6840 C.ar  416  TRP416      0.0015
     51  N        -12.6970   53.3160   29.0940 N.am  417  GLY417     -0.1942
     52  CA       -13.1670   54.5740   29.6970 C.3   417  GLY417      0.2014
     53  C        -12.1090   55.2730   30.5520 C.2   417  GLY417      0.2639
     54  O        -12.4090   55.7750   31.6360 O.2   417  GLY417     -0.2714
     55  N        -10.8680   55.2910   30.0750 N.am  418  VAL418     -0.1963
     56  CA        -9.7540   55.8190   30.8690 C.3   418  VAL418      0.1727
     57  C         -9.7840   57.3490   30.9190 C.2   418  VAL418      0.2616
     58  O         -9.8220   57.9940   29.8630 O.2   418  VAL418     -0.2715
     59  CB        -8.3890   55.3340   30.3130 C.3   418  VAL418      0.0290
     60  CG1       -7.2260   55.9370   31.1070 C.3   418  VAL418      0.0023
     61  CG2       -8.3240   53.7900   30.3300 C.3   418  VAL418      0.0023
     62  N         -9.8480   57.9220   32.1240 N.am  419  MET419     -0.1977
     63  CA        -9.5140   59.3480   32.2780 C.3   419  MET419      0.1605
     64  C         -7.9940   59.4270   32.4090 C.2   419  MET419      0.2287
     65  O         -7.3890   58.6900   33.2150 O.2   419  MET419     -0.2864
     66  CB       -10.1470   59.9800   33.5310 C.3   419  MET419      0.0413
     67  CG       -11.6680   59.9940   33.6170 C.3   419  MET419      0.0598
     68  SD       -12.4720   60.6310   32.1230 S.3   419  MET419     -0.1393
     69  CE       -13.3830   59.1880   31.5610 C.3   419  MET419      0.0692
     70  N        -12.7820   67.3990   30.2860 N.3   442  GLY442     -0.1210
     71  CA       -13.4280   67.5870   31.5780 C.3   442  GLY442      0.1956
     72  C        -12.3810   68.0880   32.5570 C.2   442  GLY442      0.2612
     73  O        -11.1830   67.8730   32.3440 O.2   442  GLY442     -0.2717
     74  N        -12.8060   68.7840   33.6120 N.am  443  ASP443     -0.1959
     75  CA       -11.8260   69.2960   34.5740 C.3   443  ASP443      0.1840
     76  C        -11.2090   68.1940   35.4390 C.2   443  ASP443      0.2623
     77  O        -10.0080   68.2120   35.6750 O.2   443  ASP443     -0.2715
     78  CB       -12.3360   70.5000   35.4000 C.3   443  ASP443      0.1450
     79  CG       -13.6290   70.2400   36.1380 C.2   443  ASP443      0.3671
     80  OD1      -14.4050   69.3280   35.7920 O.co2 443  ASP443     -0.2456
     81  OD2      -13.9030   71.0120   37.0910 O.co2 443  ASP443     -0.2456
     82  N        -12.0120   67.2320   35.8780 N.am  444  SER444     -0.1936
     83  CA       -11.4410   66.0380   36.5360 C.3   444  SER444      0.2055
     84  C        -10.5190   65.2920   35.5730 C.2   444  SER444      0.2642
     85  O         -9.3560   65.0660   35.8780 O.2   444  SER444     -0.2714
     86  CB       -12.5330   65.1210   37.0450 C.3   444  SER444      0.2130
     87  OG       -11.9750   63.9580   37.6550 O.3   444  SER444     -0.2179
     88  N        -11.0400   64.9080   34.4090 N.am  445  ALA445     -0.1977
     89  CA       -10.2260   64.2220   33.4110 C.3   445  ALA445      0.1597
     90  C         -8.8670   64.8930   33.2010 C.2   445  ALA445      0.2287
     91  O         -7.8430   64.2350   33.2100 O.2   445  ALA445     -0.2864
     92  CB       -10.9660   64.0820   32.0990 C.3   445  ALA445      0.0319
     93  N         -5.7030   64.2030   35.4760 N.3   448  PHE448     -0.1241
     94  CA        -4.9620   62.9210   35.4130 C.3   448  PHE448      0.1605
     95  C         -3.6550   62.9990   34.6130 C.2   448  PHE448      0.2264
     96  O         -2.7850   62.1430   34.7760 O.2   448  PHE448     -0.2867
     97  CB        -5.8480   61.7860   34.8720 C.3   448  PHE448      0.0534
     98  CG        -6.9320   61.3400   35.8200 C.ar  448  PHE448     -0.0203
     99  CD1       -8.1240   62.0630   35.9340 C.ar  448  PHE448     -0.0042
    100  CD2       -6.7720   60.1830   36.5940 C.ar  448  PHE448     -0.0042
    101  CE1       -9.1390   61.6500   36.7960 C.ar  448  PHE448     -0.0003
    102  CE2       -7.7720   59.7720   37.4820 C.ar  448  PHE448     -0.0003
    103  CZ        -8.9630   60.5050   37.5850 C.ar  448  PHE448     -0.0000
    104  N        -13.6170   72.1220   30.2140 N.3   468  PHE468     -0.1241
    105  CA       -14.9760   72.3470   30.6640 C.3   468  PHE468      0.1605
    106  C        -15.0180   72.3420   32.1870 C.2   468  PHE468      0.2264
    107  O        -15.1780   71.2900   32.8450 O.2   468  PHE468     -0.2867
    108  CB       -15.9430   71.3320   30.0210 C.3   468  PHE468      0.0534
    109  CG       -16.4050   71.7380   28.6450 C.ar  468  PHE468     -0.0203
    110  CD1      -15.4910   72.1800   27.6950 C.ar  468  PHE468     -0.0042
    111  CD2      -17.7560   71.7170   28.3120 C.ar  468  PHE468     -0.0042
    112  CE1      -15.9120   72.5900   26.4110 C.ar  468  PHE468     -0.0003
    113  CE2      -18.1810   72.1250   27.0490 C.ar  468  PHE468     -0.0003
    114  CZ       -17.2630   72.5590   26.0980 C.ar  468  PHE468     -0.0000
    115  N        -16.6530   72.7050   35.2620 N.3   470  ASN470     -0.1240
    116  CA       -17.9010   72.7110   36.0250 C.3   470  ASN470      0.1653
    117  C        -17.6370   72.5320   37.5180 C.2   470  ASN470      0.2266
    118  O        -18.5700   72.4040   38.3110 O.2   470  ASN470     -0.2867
    119  CB       -18.8900   71.6540   35.5140 C.3   470  ASN470      0.1155
    120  CG       -18.3700   70.2340   35.6910 C.2   470  ASN470      0.2627
    121  OD1      -17.1690   70.0290   35.8470 O.2   470  ASN470     -0.2716
    122  ND2      -19.2660   69.2690   35.6700 N.am  470  ASN470     -0.0877
    123  N        -15.9670   70.0720   39.0780 N.3   472  GLY472     -0.1210
    124  CA       -15.8360   68.7270   39.6210 C.3   472  GLY472      0.1956
    125  C        -16.1620   67.5460   38.7400 C.2   472  GLY472      0.2612
    126  O        -16.2720   67.6570   37.5140 O.2   472  GLY472     -0.2717
    127  N        -16.3020   66.4010   39.4000 N.am  473  ILE473     -0.1965
    128  CA       -16.5540   65.1240   38.7350 C.3   473  ILE473      0.1727
    129  C        -18.0540   64.9830   38.4810 C.2   473  ILE473      0.2616
    130  O        -18.8190   64.7810   39.4180 O.2   473  ILE473     -0.2715
    131  CB       -16.0400   63.9270   39.6050 C.3   473  ILE473      0.0290
    132  CG1      -14.5330   64.0580   39.8890 C.3   473  ILE473      0.0022
    133  CG2      -16.3570   62.5830   38.9180 C.3   473  ILE473      0.0023
    134  CD1      -14.0100   63.0760   40.9660 C.3   473  ILE473      0.0001
    135  N        -18.4430   65.0700   37.2030 N.am  474  TYR474     -0.1974
    136  CA       -19.8490   65.0690   36.7300 C.3   474  TYR474      0.1639
    137  C        -20.5560   66.4020   36.9860 C.2   474  TYR474      0.2290
    138  O        -21.1310   66.9690   36.0650 O.2   474  TYR474     -0.2864
    139  CB       -20.7150   63.9620   37.3360 C.3   474  TYR474      0.0560
    140  CG       -20.2080   62.5480   37.2320 C.ar  474  TYR474     -0.0198
    141  CD1      -20.0850   61.9030   36.0000 C.ar  474  TYR474     -0.0009
    142  CD2      -19.9240   61.8280   38.3910 C.ar  474  TYR474     -0.0009
    143  CE1      -19.6510   60.5520   35.9300 C.ar  474  TYR474      0.0417
    144  CE2      -19.4760   60.5100   38.3370 C.ar  474  TYR474      0.0417
    145  CZ       -19.3520   59.8750   37.1200 C.ar  474  TYR474      0.1957
    146  OH       -18.9130   58.5630   37.1120 O.3   474  TYR474     -0.2866
@<TRIPOS>BOND
     1     4     3    2
     2   114   112   ar
     3   114   113   ar
     4    33    32    2
     5     3     2    1
     6   112   110   ar
     7   113   111   ar
     8    32    31    1
     9     2     5    1
    10     2     1    1
    11    37    38    1
    12   110   109   ar
    13    36    34    1
    14     5     6    1
    15    25    24    2
    16   111   109   ar
    17    31    34    1
    18    31    30    1
    19   109   108    1
    20    34    35    1
    21    51    52    1
    22    51    39   am
    23    38    41    1
    24    38    39    1
    25    24    30   am
    26    24    23    1
    27     7     6   ar
    28     7     9   ar
    29     6     8   ar
    30    20    19    2
    31    41    42    1
    32    13    14    1
    33    52    53    1
    34    39    40    2
    35    58    57    2
    36   108   105    1
    37    55    53   am
    38    55    56    1
    39    42    43   ar
    40    42    44   ar
    41   104   105    1
    42    16    15    2
    43    70    71    1
    44    59    61    1
    45    59    56    1
    46    59    60    1
    47    23    22    1
    48    23    26    1
    49    43    45   ar
    50     9    11   ar
    51     8    10   ar
    52    53    54    2
    53    19    22   am
    54    19    18    1
    55    44    47   ar
    56    44    46   ar
    57   105   106    1
    58    14    15    1
    59    15    17   am
    60    47    49   ar
    61    56    57    1
    62    45    46   ar
    63    57    62   am
    64    46    48   ar
    65    26    27    1
    66    49    50   ar
    67    17    18    1
    68    18    21    1
    69    69    68    1
    70    71    72    1
    71    48    50   ar
    72    11    10   ar
    73    11    12    1
    74    29    27   am
    75    92    89    1
    76    68    67    1
    77    62    63    1
    78   106   107    2
    79    27    28    2
    80    63    64    1
    81    63    66    1
    82    73    72    2
    83    64    65    2
    84    72    74   am
    85    90    91    2
    86    90    89    1
    87    89    88    1
    88    66    67    1
    89    74    75    1
    90    88    84   am
    91    75    78    1
    92    75    76    1
    93    95    96    2
    94    95    94    1
    95    97    94    1
    96    97    98    1
    97   115   116    1
    98    78    79    1
    99    94    93    1
   100    76    77    2
   101    76    82   am
   102   119   120    1
   103   119   116    1
   104    84    85    2
   105    84    83    1
   106   122   120   am
   107   120   121    2
   108    80    79   ar
   109    98    99   ar
   110    98   100   ar
   111    82    83    1
   112   143   141   ar
   113   143   145   ar
   114    99   101   ar
   115   141   140   ar
   116   116   117    1
   117   138   137    2
   118    79    81   ar
   119    83    86    1
   120   100   102   ar
   121   136   137    1
   122   136   135    1
   123   136   139    1
   124   101   103   ar
   125    86    87    1
   126   146   145    1
   127   145   144   ar
   128   135   129   am
   129   140   139    1
   130   140   142   ar
   131   102   103   ar
   132   126   125    2
   133   117   118    2
   134   144   142   ar
   135   129   128    1
   136   129   130    2
   137   128   127    1
   138   128   131    1
   139   125   127   am
   140   125   124    1
   141   133   131    1
   142   123   124    1
   143   131   132    1
   144   132   134    1
