@<TRIPOS>MOLECULE
tmp/2q28B01.pdb
 197 186 0 0 0
SMALL
GASTEIGER

@<TRIPOS>ATOM
      1  N         -0.7350   52.6400   11.8540 N.3    65  GLN65      -0.1245
      2  CA        -0.5260   51.1810   11.7030 C.3    65  GLN65       0.1566
      3  C          0.9560   50.7830   11.8750 C.2    65  GLN65       0.2260
      4  O          1.3400   49.6540   11.5650 O.2    65  GLN65      -0.2867
      5  CB        -1.0400   50.6550   10.3490 C.3    65  GLN65       0.0367
      6  CG        -2.5220   50.9500   10.0280 C.3    65  GLN65       0.0905
      7  CD        -2.9780   50.2210    8.7580 C.2    65  GLN65       0.2608
      8  OE1       -2.1680   49.9560    7.8620 O.2    65  GLN65      -0.2717
      9  NE2       -4.2590   49.8830    8.6870 N.am   65  GLN65      -0.0878
     10  N         -7.7290   48.4480   23.7510 N.3    91  ASN91      -0.1225
     11  CA        -8.2810   49.1540   22.5890 C.3    91  ASN91       0.1785
     12  C         -7.8690   48.6000   21.2260 C.2    91  ASN91       0.2597
     13  O         -8.5390   48.8640   20.2020 O.2    91  ASN91      -0.2718
     14  CB        -7.9060   50.6360   22.6690 C.3    91  ASN91       0.1169
     15  CG        -8.7170   51.3770   23.6910 C.2    91  ASN91       0.2627
     16  OD1       -8.2550   51.6240   24.8070 O.2    91  ASN91      -0.2716
     17  ND2       -9.9330   51.7360   23.3300 N.am   91  ASN91      -0.0877
     18  N         -6.7680   47.8470   21.2010 N.am   92  GLY92      -0.1957
     19  CA        -6.2280   47.3000   19.9710 C.3    92  GLY92       0.1869
     20  C         -5.3340   48.2620   19.2200 C.2    92  GLY92       0.2309
     21  O         -5.3300   48.2900   17.9790 O.2    92  GLY92      -0.2863
     22  N         -2.7900   40.2920   13.5480 N.3   153  GLY153     -0.1210
     23  CA        -4.0650   39.9770   14.2070 C.3   153  GLY153      0.1956
     24  C         -4.8250   41.2070   14.6840 C.2   153  GLY153      0.2612
     25  O         -4.8780   42.2050   13.9760 O.2   153  GLY153     -0.2717
     26  N         -5.4380   41.1310   15.8670 N.am  154  ARG154     -0.1966
     27  CA        -5.9070   42.3360   16.5230 C.3   154  ARG154      0.1714
     28  C         -4.6550   43.0440   17.0170 C.2   154  ARG154      0.2458
     29  O         -3.9400   42.4830   17.8500 O.2   154  ARG154     -0.2730
     30  CB        -6.8450   42.0090   17.6970 C.3   154  ARG154      0.0347
     31  CG        -7.2480   43.2310   18.5100 C.3   154  ARG154      0.0492
     32  CD        -8.1130   42.8350   19.7170 C.3   154  ARG154      0.2205
     33  NE        -9.4430   42.4230   19.2690 N.pl3 154  ARG154     -0.0865
     34  CZ       -10.3310   41.7900   20.0310 C.cat 154  ARG154      0.5346
     35  NH1      -11.5260   41.4740   19.5290 N.pl3 154  ARG154      0.1354
     36  NH2      -10.0240   41.4750   21.2940 N.pl3 154  ARG154      0.1354
     37  N         -4.3970   44.2880   16.5550 N.am  155  PRO155     -0.2727
     38  CA        -3.1670   44.9670   17.0440 C.3   155  PRO155      0.1402
     39  C         -3.1890   45.2350   18.5500 C.2   155  PRO155      0.2269
     40  O         -4.2470   45.2350   19.1820 O.2   155  PRO155     -0.2865
     41  CB        -3.1490   46.2810   16.2570 C.3   155  PRO155      0.0296
     42  CG        -3.9900   45.9540   14.9920 C.3   155  PRO155      0.0237
     43  CD        -5.1240   45.1260   15.5820 C.3   155  PRO155      0.0939
     44  N        -16.8640   50.4380   13.6030 N.3   215  GLY215     -0.1210
     45  CA       -16.0760   50.5780   14.8190 C.3   215  GLY215      0.1956
     46  C        -14.7000   51.1750   14.5340 C.2   215  GLY215      0.2612
     47  O        -14.3160   51.3980   13.3750 O.2   215  GLY215     -0.2717
     48  N        -13.9260   51.4080   15.5910 N.am  216  LYS216     -0.1965
     49  CA       -12.5970   51.9810   15.3880 C.3   216  LYS216      0.1728
     50  C        -11.6330   51.0170   14.6830 C.2   216  LYS216      0.2616
     51  O        -10.6110   51.4490   14.1510 O.2   216  LYS216     -0.2715
     52  CB       -12.0180   52.5890   16.6860 C.3   216  LYS216      0.0311
     53  CG       -11.6500   51.6260   17.7900 C.3   216  LYS216      0.0038
     54  CD       -11.1320   52.4340   19.0130 C.3   216  LYS216      0.0206
     55  CE       -10.6440   51.5170   20.1330 C.3   216  LYS216      0.1093
     56  NZ       -11.7640   50.8910   20.8790 N.3   216  LYS216     -0.1314
     57  N        -11.9780   49.7250   14.6590 N.am  217  GLY217     -0.1955
     58  CA       -11.2660   48.7520   13.8060 C.3   217  GLY217      0.1869
     59  C        -11.4210   49.1280   12.3330 C.2   217  GLY217      0.2309
     60  O        -10.4500   49.0610   11.5550 O.2   217  GLY217     -0.2863
     61  N         -9.2060   52.1840   11.8870 N.3   220  TYR220     -0.1227
     62  CA        -7.8170   51.7290   11.8870 C.3   220  TYR220      0.1736
     63  C         -7.4060   51.1320   10.5480 C.2   220  TYR220      0.2596
     64  O         -6.2830   51.3360   10.1010 O.2   220  TYR220     -0.2718
     65  CB        -7.5930   50.7050   13.0260 C.3   220  TYR220      0.0548
     66  CG        -6.1670   50.1870   13.0750 C.ar  220  TYR220     -0.0200
     67  CD1       -5.1390   50.9500   13.6570 C.ar  220  TYR220     -0.0009
     68  CD2       -5.8440   48.9430   12.5400 C.ar  220  TYR220     -0.0009
     69  CE1       -3.8110   50.4770   13.6840 C.ar  220  TYR220      0.0417
     70  CE2       -4.5180   48.4660   12.5480 C.ar  220  TYR220      0.0417
     71  CZ        -3.5150   49.2350   13.1340 C.ar  220  TYR220      0.1957
     72  OH        -2.2200   48.7540   13.1420 O.3   220  TYR220     -0.2866
     73  N         -8.3160   50.3800    9.9170 N.am  221  SER221     -0.1952
     74  CA        -8.0180   49.6880    8.6630 C.3   221  SER221      0.1924
     75  C         -7.6620   50.6070    7.4980 C.2   221  SER221      0.2314
     76  O         -7.0490   50.1620    6.5430 O.2   221  SER221     -0.2863
     77  CB        -9.1770   48.7720    8.2380 C.3   221  SER221      0.2116
     78  OG       -10.2460   49.5420    7.6930 O.3   221  SER221     -0.2180
     79  N        -19.2210   54.3020   15.5080 N.3   241  MET241     -0.1230
     80  CA       -18.7680   54.3830   16.8900 C.3   241  MET241      0.1702
     81  C        -17.8550   55.5970   17.0490 C.2   241  MET241      0.2593
     82  O        -17.3660   56.1430   16.0640 O.2   241  MET241     -0.2718
     83  CB       -18.0360   53.1120   17.2910 C.3   241  MET241      0.0401
     84  CG       -18.9010   51.8400   17.1170 C.3   241  MET241      0.0596
     85  SD       -20.4300   51.7970   18.0660 S.3   241  MET241     -0.1393
     86  CE       -19.8520   51.6850   19.7580 C.3   241  MET241      0.0692
     87  N        -17.5990   55.9730   18.3050 N.am  242  SER242     -0.1938
     88  CA       -16.8350   57.1760   18.6290 C.3   242  SER242      0.2055
     89  C        -15.6190   57.4470   17.7530 C.2   242  SER242      0.2642
     90  O        -15.5420   58.4890   17.1120 O.2   242  SER242     -0.2714
     91  CB       -16.4220   57.1690   20.1080 C.3   242  SER242      0.2130
     92  OG       -15.7350   58.3820   20.3580 O.3   242  SER242     -0.2179
     93  N        -14.6700   56.5110   17.6960 N.am  243  MET243     -0.1976
     94  CA       -13.4250   56.8060   16.9950 C.3   243  MET243      0.1605
     95  C        -13.5090   56.4080   15.5170 C.2   243  MET243      0.2287
     96  O        -12.5420   56.5430   14.7690 O.2   243  MET243     -0.2864
     97  CB       -12.2060   56.2360   17.7500 C.3   243  MET243      0.0413
     98  CG       -11.9730   56.9960   19.0700 C.3   243  MET243      0.0598
     99  SD       -10.5840   56.3800   20.0360 S.3   243  MET243     -0.1393
    100  CE        -9.2800   56.3550   18.8360 C.3   243  MET243      0.0692
    101  N        -15.3890   45.8770   12.3520 N.3   274  GLY274     -0.1210
    102  CA       -14.3550   46.2100   13.3450 C.3   274  GLY274      0.1956
    103  C        -14.9400   46.9090   14.5620 C.2   274  GLY274      0.2612
    104  O        -14.4580   47.9850   14.9540 O.2   274  GLY274     -0.2717
    105  N        -15.9850   46.3160   15.1350 N.am  275  ALA275     -0.1965
    106  CA       -16.6770   46.8370   16.3280 C.3   275  ALA275      0.1728
    107  C        -17.1020   45.6600   17.1690 C.2   275  ALA275      0.2616
    108  O        -17.7410   44.7580   16.6670 O.2   275  ALA275     -0.2715
    109  CB       -17.9370   47.6440   15.9340 C.3   275  ALA275      0.0334
    110  N        -16.7910   45.6960   18.4670 N.am  276  ARG276     -0.1977
    111  CA       -17.2240   44.6300   19.3580 C.3   276  ARG276      0.1597
    112  C        -18.6100   44.8420   19.9390 C.2   276  ARG276      0.2287
    113  O        -18.9970   45.9710   20.2650 O.2   276  ARG276     -0.2864
    114  CB       -16.2110   44.4840   20.4900 C.3   276  ARG276      0.0334
    115  CG       -14.8400   44.0520   20.0030 C.3   276  ARG276      0.0492
    116  CD       -13.8490   43.9920   21.1650 C.3   276  ARG276      0.2205
    117  NE       -13.1700   45.2770   21.2930 N.pl3 276  ARG276     -0.0865
    118  CZ       -12.0340   45.4690   21.9590 C.cat 276  ARG276      0.5346
    119  NH1      -11.4470   44.4520   22.5910 N.pl3 276  ARG276      0.1354
    120  NH2      -11.4840   46.6720   21.9730 N.pl3 276  ARG276      0.1354
    121  N        -19.6210   44.7390   22.8020 N.3   278  ASN278     -0.1240
    122  CA       -19.2990   44.9060   24.2150 C.3   278  ASN278      0.1653
    123  C        -20.2070   45.9480   24.8650 C.2   278  ASN278      0.2266
    124  O        -21.2620   46.3080   24.3040 O.2   278  ASN278     -0.2867
    125  CB       -17.7950   45.2400   24.3920 C.3   278  ASN278      0.1155
    126  CG       -17.3960   46.6000   23.8090 C.2   278  ASN278      0.2627
    127  OD1      -18.2330   47.3900   23.3480 O.2   278  ASN278     -0.2716
    128  ND2      -16.1010   46.8850   23.8490 N.am  278  ASN278     -0.0877
    129  N        -20.2570   49.0320   25.0860 N.3   280  LEU280     -0.1245
    130  CA       -20.5240   50.2570   24.2870 C.3   280  LEU280      0.1561
    131  C        -21.7410   50.0720   23.3620 C.2   280  LEU280      0.2260
    132  O        -22.3440   51.0470   22.8680 O.2   280  LEU280     -0.2867
    133  CB       -19.2910   50.6550   23.4810 C.3   280  LEU280      0.0270
    134  CG       -18.1010   51.2290   24.2670 C.3   280  LEU280      0.0019
    135  CD1      -16.9170   51.3730   23.3470 C.3   280  LEU280      0.0001
    136  CD2      -18.4520   52.5940   24.8930 C.3   280  LEU280      0.0001
    137  N        -14.2430   40.8870   11.3060 N.3   298  ASP298     -0.1225
    138  CA       -13.1870   41.0760   12.3080 C.3   298  ASP298      0.1805
    139  C        -12.0090   40.1760   11.9710 C.2   298  ASP298      0.2598
    140  O        -12.1950   39.0860   11.4240 O.2   298  ASP298     -0.2718
    141  CB       -13.7120   40.7720   13.7140 C.3   298  ASP298      0.1424
    142  CG       -12.9690   41.5530   14.7980 C.2   298  ASP298      0.3668
    143  OD1      -11.7910   41.2350   15.0830 O.co2 298  ASP298     -0.2456
    144  OD2      -13.5500   42.5230   15.3270 O.co2 298  ASP298     -0.2456
    145  N        -10.8120   40.6440   12.3080 N.am  299  ILE299     -0.1966
    146  CA        -9.5650   39.8960   12.1270 C.3   299  ILE299      0.1727
    147  C         -9.3740   38.8630   13.2410 C.2   299  ILE299      0.2616
    148  O         -8.5930   37.8970   13.0790 O.2   299  ILE299     -0.2715
    149  CB        -8.3480   40.8710   12.0850 C.3   299  ILE299      0.0290
    150  CG1       -7.0610   40.1710   11.6220 C.3   299  ILE299      0.0022
    151  CG2       -8.1260   41.5250   13.4400 C.3   299  ILE299      0.0023
    152  CD1       -7.1080   39.5770   10.2400 C.3   299  ILE299      0.0001
    153  N        -10.1210   39.0260   14.3360 N.am  300  GLU300     -0.1977
    154  CA        -9.9200   38.2010   15.5310 C.3   300  GLU300      0.1602
    155  C        -11.0230   37.1300   15.6010 C.2   300  GLU300      0.2287
    156  O        -12.1330   37.4190   16.0510 O.2   300  GLU300     -0.2864
    157  CB        -9.9240   39.0810   16.8010 C.3   300  GLU300      0.0415
    158  CG        -9.7630   38.2920   18.1080 C.3   300  GLU300      0.1163
    159  CD        -8.5840   37.3200   18.0120 C.2   300  GLU300      0.3649
    160  OE1       -7.4410   37.7780   18.2070 O.co2 300  GLU300     -0.2457
    161  OE2       -8.7880   36.1210   17.7200 O.co2 300  GLU300     -0.2457
    162  N        -13.1680   36.7190   18.7330 N.3   303  GLU303     -0.1245
    163  CA       -14.2080   37.7000   19.0800 C.3   303  GLU303      0.1567
    164  C        -15.6150   37.2240   18.6850 C.2   303  GLU303      0.2260
    165  O        -16.6170   37.6820   19.2360 O.2   303  GLU303     -0.2867
    166  CB       -13.9210   39.0410   18.4070 C.3   303  GLU303      0.0388
    167  CG       -14.8710   40.1970   18.8440 C.3   303  GLU303      0.1160
    168  CD       -14.9400   40.4110   20.3550 C.2   303  GLU303      0.3649
    169  OE1      -13.8630   40.4090   21.0180 O.co2 303  GLU303     -0.2457
    170  OE2      -16.0710   40.5760   20.8930 O.co2 303  GLU303     -0.2457
    171  N        -11.1430   38.0860    8.6950 N.3   316  GLY316     -0.1210
    172  CA       -10.0420   38.5280    7.8350 C.3   316  GLY316      0.1956
    173  C         -9.8310   40.0120    8.1030 C.2   316  GLY316      0.2612
    174  O        -10.5060   40.5860    8.9540 O.2   316  GLY316     -0.2717
    175  N         -8.8700   40.6240    7.4210 N.am  317  ASP317     -0.1959
    176  CA        -8.6130   42.0460    7.6680 C.3   317  ASP317      0.1840
    177  C         -9.6350   42.8680    6.8760 C.2   317  ASP317      0.2621
    178  O        -10.0300   42.4800    5.7710 O.2   317  ASP317     -0.2715
    179  CB        -7.1610   42.4160    7.3390 C.3   317  ASP317      0.1450
    180  CG        -6.9160   42.6330    5.8510 C.2   317  ASP317      0.3671
    181  OD1       -7.1380   43.7720    5.3810 O.co2 317  ASP317     -0.2456
    182  OD2       -6.4650   41.6780    5.1700 O.co2 317  ASP317     -0.2456
    183  N        -10.0600   43.9940    7.4380 N.am  318  ILE318     -0.1977
    184  CA       -11.2260   44.7020    6.8810 C.3   318  ILE318      0.1596
    185  C        -10.9950   45.1570    5.4300 C.2   318  ILE318      0.2287
    186  O        -11.8820   45.0020    4.5870 O.2   318  ILE318     -0.2864
    187  CB       -11.7020   45.8310    7.8230 C.3   318  ILE318      0.0276
    188  CG1      -12.5430   45.2260    8.9560 C.3   318  ILE318      0.0022
    189  CG2      -12.4770   46.9100    7.0530 C.3   318  ILE318      0.0022
    190  CD1      -12.5950   46.0550   10.2430 C.3   318  ILE318      0.0001
    191  N        -12.2490   51.9710   25.0250 N.3   415  THR415     -0.1218
    192  CA       -12.9220   50.7860   25.5130 C.3   415  THR415      0.1862
    193  C        -12.9590   50.6530   27.0460 C.2   415  THR415      0.2287
    194  O        -13.9260   50.0980   27.6250 O.2   415  THR415     -0.2866
    195  CB       -12.2840   49.5380   24.8520 C.3   415  THR415      0.1770
    196  OG1      -12.2850   49.6970   23.4220 O.3   415  THR415     -0.2211
    197  CG2      -13.0090   48.2230   25.2530 C.3   415  THR415      0.0375
@<TRIPOS>BOND
     1   186   185    2
     2   182   180   ar
     3   181   180   ar
     4   185   184    1
     5   178   177    2
     6   180   179    1
     7    76    75    2
     8   177   183   am
     9   177   176    1
    10   184   183    1
    11   184   187    1
    12   189   187    1
    13   179   176    1
    14   175   176    1
    15   175   173   am
    16    75    74    1
    17    78    77    1
    18   187   188    1
    19   172   173    1
    20   172   171    1
    21     8     7    2
    22   173   174    2
    23    77    74    1
    24    74    73    1
    25     9     7   am
    26     7     6    1
    27   188   190    1
    28    73    63   am
    29     6     5    1
    30    64    63    2
    31   152   150    1
    32     5     2    1
    33    63    62    1
    34   137   138    1
    35   140   139    2
    36    60    59    2
    37     4     3    2
    38   150   149    1
    39     2     1    1
    40     2     3    1
    41    62    61    1
    42    62    65    1
    43   139   138    1
    44   139   145   am
    45   149   146    1
    46   149   151    1
    47   146   145    1
    48   146   147    1
    49   138   141    1
    50    59    58    1
    51   101   102    1
    52    68    70   ar
    53    68    66   ar
    54    70    71   ar
    55    65    66    1
    56    66    67   ar
    57   148   147    2
    58    71    72    1
    59    71    69   ar
    60   147   153   am
    61   102   103    1
    62    47    46    2
    63    22    23    1
    64    44    45    1
    65    67    69   ar
    66   141   142    1
    67    58    57    1
    68    25    24    2
    69    51    50    2
    70    23    24    1
    71   153   154    1
    72    46    45    1
    73    46    48   am
    74   103   104    2
    75   103   105   am
    76    57    50   am
    77    50    49    1
    78    24    26   am
    79    96    95    2
    80   142   143   ar
    81   142   144   ar
    82    42    43    1
    83    42    41    1
    84   105   106    1
    85    49    48    1
    86    49    52    1
    87    79    80    1
    88    95    94    1
    89   154   155    1
    90   154   157    1
    91    43    37    1
    92   155   156    2
    93    26    27    1
    94   109   106    1
    95    82    81    2
    96    41    38    1
    97   106   107    1
    98    27    28    1
    99    27    30    1
   100    37    28   am
   101    37    38    1
   102   108   107    2
   103    52    53    1
   104   157   158    1
   105    80    81    1
   106    80    83    1
   107    94    93    1
   108    94    97    1
   109    28    29    2
   110    38    39    1
   111    81    87   am
   112    90    89    2
   113    84    83    1
   114    84    85    1
   115   107   110   am
   116    93    89   am
   117    30    31    1
   118   161   159   ar
   119    97    98    1
   120    89    88    1
   121    53    54    1
   122    21    20    2
   123   159   158    1
   124   159   160   ar
   125    85    86    1
   126    87    88    1
   127   166   167    1
   128   166   163    1
   129   110   111    1
   130    31    32    1
   131    39    40    2
   132    88    91    1
   133   164   163    1
   134   164   165    2
   135   162   163    1
   136   100    99    1
   137   167   168    1
   138    54    55    1
   139    98    99    1
   140    20    19    1
   141    33    32    1
   142    33    34    2
   143   111   112    1
   144   111   114    1
   145    35    34    1
   146   112   113    2
   147    19    18    1
   148   115   114    1
   149   115   116    1
   150    34    36    1
   151    91    92    1
   152    55    56    1
   153    13    12    2
   154   168   170   ar
   155   168   169   ar
   156   116   117    1
   157    18    12   am
   158    12    11    1
   159   117   118    2
   160   118   120    1
   161   118   119    1
   162    11    14    1
   163    11    10    1
   164    14    15    1
   165   121   122    1
   166   132   131    2
   167    17    15   am
   168   135   134    1
   169   127   126    2
   170   131   130    1
   171   196   195    1
   172   133   134    1
   173   133   130    1
   174    15    16    2
   175   126   128   am
   176   126   125    1
   177   122   125    1
   178   122   123    1
   179   134   136    1
   180   130   129    1
   181   124   123    2
   182   195   197    1
   183   195   192    1
   184   191   192    1
   185   192   193    1
   186   193   194    2
