@<TRIPOS>MOLECULE
tmp/2q29A00.pdb
 115 109 0 0 0
SMALL
GASTEIGER

@<TRIPOS>ATOM
      1  N         14.0800  -12.2800   -4.2890 N.3   257  ALA257     -0.1231
      2  CA        14.2290  -11.8900   -5.7040 C.3   257  ALA257      0.1694
      3  C         15.5600  -11.2110   -6.0150 C.2   257  ALA257      0.2592
      4  O         16.1320  -11.4280   -7.0840 O.2   257  ALA257     -0.2718
      5  CB        13.0410  -10.9980   -6.1810 C.3   257  ALA257      0.0304
      6  N         16.0550  -10.3930   -5.0870 N.am  258  ALA258     -0.1966
      7  CA        17.3080   -9.6590   -5.2970 C.3   258  ALA258      0.1728
      8  C         18.5720  -10.4690   -4.9550 C.2   258  ALA258      0.2616
      9  O         19.6880   -9.9510   -5.0300 O.2   258  ALA258     -0.2715
     10  CB        17.2830   -8.3280   -4.5370 C.3   258  ALA258      0.0334
     11  N         18.3970  -11.7260   -4.5740 N.am  259  ALA259     -0.1963
     12  CA        19.5440  -12.6440   -4.3980 C.3   259  ALA259      0.1728
     13  C         19.2260  -13.9980   -5.0330 C.2   259  ALA259      0.2616
     14  O         19.4490  -15.0600   -4.4660 O.2   259  ALA259     -0.2715
     15  CB        19.9150  -12.7670   -2.9240 C.3   259  ALA259      0.0334
     16  N         18.6630  -13.9400   -6.2340 N.am  260  ARG260     -0.1963
     17  CA        18.2030  -15.1300   -6.9010 C.3   260  ARG260      0.1729
     18  C         19.3030  -16.1760   -7.0890 C.2   260  ARG260      0.2617
     19  O         19.1060  -17.3720   -6.7920 O.2   260  ARG260     -0.2715
     20  CB        17.6030  -14.7650   -8.2660 C.3   260  ARG260      0.0348
     21  CG        16.9780  -15.9730   -8.9440 C.3   260  ARG260      0.0492
     22  CD        16.6600  -15.6020  -10.3680 C.3   260  ARG260      0.2205
     23  NE        15.6860  -16.4760  -11.0170 N.pl3 260  ARG260     -0.0865
     24  CZ        16.0100  -17.4990  -11.7980 C.cat 260  ARG260      0.5346
     25  NH1       17.2800  -17.8180  -11.9640 N.pl3 260  ARG260      0.1354
     26  NH2       15.0540  -18.2290  -12.3840 N.pl3 260  ARG260      0.1354
     27  N         20.4430  -15.7570   -7.6320 N.am  261  SER261     -0.1936
     28  CA        21.5240  -16.7090   -7.8800 C.3   261  SER261      0.2055
     29  C         22.0450  -17.3300   -6.5880 C.2   261  SER261      0.2643
     30  O         22.2410  -18.5330   -6.5160 O.2   261  SER261     -0.2714
     31  CB        22.6700  -16.0570   -8.6560 C.3   261  SER261      0.2130
     32  OG        22.2230  -15.7600   -9.9680 O.3   261  SER261     -0.2179
     33  N         22.2700  -16.4910   -5.5770 N.am  262  PHE262     -0.1973
     34  CA        22.7080  -16.9850   -4.2720 C.3   262  PHE262      0.1639
     35  C         21.6970  -17.9820   -3.6900 C.2   262  PHE262      0.2290
     36  O         22.0840  -19.0070   -3.1330 O.2   262  PHE262     -0.2864
     37  CB        22.9740  -15.8140   -3.3110 C.3   262  PHE262      0.0560
     38  CG        23.3940  -16.2540   -1.9350 C.ar  262  PHE262     -0.0200
     39  CD1       24.7270  -16.5440   -1.6600 C.ar  262  PHE262     -0.0042
     40  CD2       22.4380  -16.3880   -0.9190 C.ar  262  PHE262     -0.0042
     41  CE1       25.1130  -16.9870   -0.3680 C.ar  262  PHE262     -0.0003
     42  CE2       22.8090  -16.8160    0.3490 C.ar  262  PHE262     -0.0003
     43  CZ        24.1470  -17.1050    0.6270 C.ar  262  PHE262     -0.0000
     44  N         13.3860  -21.8610  -17.4530 N.3   280  LEU280     -0.1245
     45  CA        13.2850  -20.6560  -16.6260 C.3   280  LEU280      0.1561
     46  C         13.9760  -20.8520  -15.2700 C.2   280  LEU280      0.2260
     47  O         14.3990  -19.8800  -14.6180 O.2   280  LEU280     -0.2867
     48  CB        11.8120  -20.2910  -16.4240 C.3   280  LEU280      0.0270
     49  CG        11.0670  -19.8140  -17.6890 C.3   280  LEU280      0.0019
     50  CD1        9.5660  -19.7680  -17.4530 C.3   280  LEU280      0.0001
     51  CD2       11.6090  -18.4720  -18.1070 C.3   280  LEU280      0.0001
     52  N         22.9520   -6.4710   -3.9240 N.3   351  ASN351     -0.1225
     53  CA        22.3190   -6.2360   -5.2240 C.3   351  ASN351      0.1785
     54  C         21.4070   -5.0230   -5.2210 C.2   351  ASN351      0.2597
     55  O         21.3520   -4.2920   -6.2070 O.2   351  ASN351     -0.2718
     56  CB        21.5600   -7.4780   -5.7150 C.3   351  ASN351      0.1169
     57  CG        22.4540   -8.4690   -6.4350 C.2   351  ASN351      0.2627
     58  OD1       23.5910   -8.1590   -6.8270 O.2   351  ASN351     -0.2716
     59  ND2       21.9400   -9.6710   -6.6350 N.am  351  ASN351     -0.0877
     60  N         20.7050   -4.7970   -4.1180 N.am  352  ALA352     -0.1979
     61  CA        19.8510   -3.6300   -3.9860 C.3   352  ALA352      0.1597
     62  C         20.6580   -2.3280   -4.1330 C.2   352  ALA352      0.2287
     63  O         20.2240   -1.4010   -4.8300 O.2   352  ALA352     -0.2864
     64  CB        19.0850   -3.6480   -2.6600 C.3   352  ALA352      0.0319
     65  N         21.5120   -1.9510   -7.8290 N.3   355  MET355     -0.1245
     66  CA        20.2930   -1.5580   -8.5590 C.3   355  MET355      0.1570
     67  C         19.9610   -0.0870   -8.3110 C.2   355  MET355      0.2261
     68  O         19.6780    0.6670   -9.2540 O.2   355  MET355     -0.2867
     69  CB        19.1050   -2.4540   -8.1600 C.3   355  MET355      0.0387
     70  CG        17.7860   -2.1010   -8.8380 C.3   355  MET355      0.0595
     71  SD        17.8500   -2.3700  -10.6080 S.3   355  MET355     -0.1393
     72  CE        17.4580   -4.1370  -10.7340 C.3   355  MET355      0.0692
     73  N         13.1650   -8.0200  -19.2350 N.3   396  ASP396     -0.1239
     74  CA        13.9480   -8.4810  -18.0800 C.3   396  ASP396      0.1674
     75  C         14.0750   -7.3470  -17.0530 C.2   396  ASP396      0.2266
     76  O         13.8800   -7.5640  -15.8490 O.2   396  ASP396     -0.2867
     77  CB        15.3290   -8.9720  -18.5190 C.3   396  ASP396      0.1410
     78  CG        15.2800  -10.2640  -19.3560 C.2   396  ASP396      0.3668
     79  OD1       14.4310  -11.1680  -19.1060 O.co2 396  ASP396     -0.2456
     80  OD2       16.1250  -10.3700  -20.2800 O.co2 396  ASP396     -0.2456
     81  N         10.6730   -6.6180  -15.3350 N.3   399  ARG399     -0.1231
     82  CA        10.3990   -7.7150  -14.4180 C.3   399  ARG399      0.1694
     83  C         11.1250   -7.4910  -13.0860 C.2   399  ARG399      0.2592
     84  O         10.5140   -7.6040  -12.0230 O.2   399  ARG399     -0.2718
     85  CB        10.7930   -9.0630  -15.0280 C.3   399  ARG399      0.0321
     86  CG        10.3870  -10.2590  -14.1330 C.3   399  ARG399      0.0489
     87  CD        10.8080  -11.6200  -14.7270 C.3   399  ARG399      0.2205
     88  NE        12.2690  -11.6980  -14.8740 N.pl3 399  ARG399     -0.0865
     89  CZ        12.9270  -11.6260  -16.0340 C.cat 399  ARG399      0.5346
     90  NH1       12.2680  -11.4740  -17.1930 N.pl3 399  ARG399      0.1354
     91  NH2       14.2570  -11.7040  -16.0410 N.pl3 399  ARG399      0.1354
     92  N         12.3940   -7.1160  -13.1570 N.am  400  ASN400     -0.1960
     93  CA        13.2150   -6.9070  -11.9440 C.3   400  ASN400      0.1819
     94  C         12.8030   -5.6680  -11.1490 C.2   400  ASN400      0.2621
     95  O         12.8160   -5.6650   -9.9160 O.2   400  ASN400     -0.2715
     96  CB        14.6920   -6.7480  -12.3200 C.3   400  ASN400      0.1195
     97  CG        15.2860   -7.9900  -12.8940 C.2   400  ASN400      0.2630
     98  OD1       14.8050   -9.1140  -12.6570 O.2   400  ASN400     -0.2716
     99  ND2       16.3390   -7.8140  -13.6530 N.am  400  ASN400     -0.0877
    100  N         12.4570   -4.6100  -11.8600 N.am  401  ILE401     -0.1977
    101  CA        12.3590   -3.2700  -11.2390 C.3   401  ILE401      0.1596
    102  C         10.9300   -2.9050  -10.8160 C.2   401  ILE401      0.2287
    103  O         10.7120   -2.2270   -9.7840 O.2   401  ILE401     -0.2864
    104  CB        12.9500   -2.1960  -12.1770 C.3   401  ILE401      0.0276
    105  CG1       14.4520   -2.4570  -12.4120 C.3   401  ILE401      0.0022
    106  CG2       12.6190   -0.7360  -11.6890 C.3   401  ILE401      0.0022
    107  CD1       15.0560   -1.6280  -13.5810 C.3   401  ILE401      0.0001
    108  N          7.8300   -3.4200   -9.0540 N.3   403  ASP403     -0.1239
    109  CA         7.2120   -4.2020   -7.9730 C.3   403  ASP403      0.1674
    110  C          5.7140   -4.3860   -8.1510 C.2   403  ASP403      0.2266
    111  O          4.9820   -3.4260   -8.4400 O.2   403  ASP403     -0.2867
    112  CB         7.4390   -3.5100   -6.6130 C.3   403  ASP403      0.1410
    113  CG         8.9100   -3.3280   -6.2800 C.2   403  ASP403      0.3668
    114  OD1        9.7400   -4.2280   -6.5380 O.co2 403  ASP403     -0.2456
    115  OD2        9.2510   -2.2460   -5.7500 O.co2 403  ASP403     -0.2456
@<TRIPOS>BOND
     1    80    78   ar
     2    78    79   ar
     3    78    77    1
     4    73    74    1
     5    77    74    1
     6    51    49    1
     7    74    75    1
     8    49    50    1
     9    49    48    1
    10    44    45    1
    11    90    89    1
    12    75    76    2
    13    45    48    1
    14    45    46    1
    15    91    89    1
    16    89    88    2
    17    81    82    1
    18    46    47    2
    19    85    82    1
    20    85    86    1
    21    88    87    1
    22    87    86    1
    23    82    83    1
    24    99    97   am
    25   107   105    1
    26    92    83   am
    27    92    93    1
    28    83    84    2
    29    97    98    2
    30    97    96    1
    31   105   104    1
    32    26    24    1
    33    96    93    1
    34   104   106    1
    35   104   101    1
    36    25    24    1
    37    93    94    1
    38   100   101    1
    39   100    94   am
    40    24    23    2
    41   101   102    1
    42    94    95    2
    43    23    22    1
    44   102   103    2
    45    72    71    1
    46    71    70    1
    47    22    21    1
    48    32    31    1
    49    68    67    2
    50   108   109    1
    51    21    20    1
    52    70    69    1
    53    31    28    1
    54    66    67    1
    55    66    69    1
    56    66    65    1
    57   111   110    2
    58    20    17    1
    59   110   109    1
    60   109   112    1
    61    28    27    1
    62    28    29    1
    63    27    18   am
    64    18    17    1
    65    18    19    2
    66     4     3    2
    67    17    16    1
    68    58    57    2
    69    59    57   am
    70   112   113    1
    71    29    30    2
    72    29    33   am
    73   114   113   ar
    74    57    56    1
    75   113   115   ar
    76    16    13   am
    77    55    54    2
    78     5     2    1
    79     3     2    1
    80     3     6   am
    81    56    53    1
    82     2     1    1
    83    33    34    1
    84     7     6    1
    85     7     8    1
    86     7    10    1
    87    53    54    1
    88    53    52    1
    89    54    60   am
    90    13    14    2
    91    13    12    1
    92     9     8    2
    93     8    11   am
    94    63    62    2
    95    11    12    1
    96    12    15    1
    97    34    35    1
    98    34    37    1
    99    62    61    1
   100    60    61    1
   101    61    64    1
   102    35    36    2
   103    37    38    1
   104    38    39   ar
   105    38    40   ar
   106    39    41   ar
   107    40    42   ar
   108    41    43   ar
   109    42    43   ar
