@<TRIPOS>MOLECULE
tmp/2q2aD00.pdb
 144 137 0 0 0
SMALL
GASTEIGER

@<TRIPOS>ATOM
      1  N         34.1210  -44.5650    9.7270 N.3    18  ASP18      -0.1239
      2  CA        34.0790  -45.1680   11.0600 C.3    18  ASP18       0.1674
      3  C         32.8300  -44.6260   11.7620 C.2    18  ASP18       0.2266
      4  O         32.8560  -43.5470   12.3510 O.2    18  ASP18      -0.2867
      5  CB        35.3450  -44.8510   11.8770 C.3    18  ASP18       0.1410
      6  CG        35.1940  -45.2570   13.3320 C.2    18  ASP18       0.3668
      7  OD1       34.6130  -46.3600   13.5800 O.co2  18  ASP18      -0.2456
      8  OD2       35.6040  -44.4700   14.2150 O.co2  18  ASP18      -0.2456
      9  N         31.0930  -44.3400   14.3580 N.3    20  ALA20      -0.1231
     10  CA        31.0240  -44.2880   15.8260 C.3    20  ALA20       0.1694
     11  C         31.4850  -42.9040   16.2730 C.2    20  ALA20       0.2592
     12  O         32.4010  -42.7800   17.0900 O.2    20  ALA20      -0.2718
     13  CB        31.9030  -45.3710   16.4260 C.3    20  ALA20       0.0304
     14  N         30.8640  -41.8640   15.6980 N.am   21  PHE21      -0.1976
     15  CA        31.3850  -40.4840   15.7720 C.3    21  PHE21       0.1639
     16  C         30.2170  -39.5410   15.5090 C.2    21  PHE21       0.2290
     17  O         30.2660  -38.7260   14.5960 O.2    21  PHE21      -0.2864
     18  CB        32.4900  -40.2730   14.7130 C.3    21  PHE21       0.0560
     19  CG        33.5070  -39.1890   15.0460 C.ar   21  PHE21      -0.0200
     20  CD1       33.6570  -38.0770   14.2070 C.ar   21  PHE21      -0.0042
     21  CD2       34.3520  -39.2930   16.1680 C.ar   21  PHE21      -0.0042
     22  CE1       34.6060  -37.0680   14.4690 C.ar   21  PHE21      -0.0003
     23  CE2       35.3150  -38.3000   16.4390 C.ar   21  PHE21      -0.0003
     24  CZ        35.4500  -37.1830   15.5850 C.ar   21  PHE21      -0.0000
     25  N         29.0070  -39.3880   11.7440 N.3    25  GLU25      -0.1245
     26  CA        28.5450  -40.7150   11.3100 C.3    25  GLU25       0.1567
     27  C         28.3140  -41.6140   12.5130 C.2    25  GLU25       0.2260
     28  O         29.1640  -41.7190   13.4040 O.2    25  GLU25      -0.2867
     29  CB        29.5210  -41.3860   10.3310 C.3    25  GLU25       0.0388
     30  CG        30.9960  -41.3450   10.7670 C.3    25  GLU25       0.1160
     31  CD        31.6890  -40.0470   10.3690 C.2    25  GLU25       0.3649
     32  OE1       31.3450  -39.5190    9.2800 O.co2  25  GLU25      -0.2457
     33  OE2       32.5830  -39.5630   11.1210 O.co2  25  GLU25      -0.2457
     34  N         37.9570  -47.2920   11.8670 N.3    58  TRP58      -0.1241
     35  CA        38.9130  -46.1870   11.7020 C.3    58  TRP58       0.1605
     36  C         40.2530  -46.6530   11.1380 C.2    58  TRP58       0.2264
     37  O         40.6580  -46.2690   10.0230 O.2    58  TRP58      -0.2867
     38  CB        39.0720  -45.4620   13.0600 C.3    58  TRP58       0.0550
     39  CG        39.9660  -44.2760   13.0630 C.ar   58  TRP58       0.0003
     40  CD1       41.1790  -44.1720   13.6960 C.ar   58  TRP58       0.0946
     41  CD2       39.7420  -43.0120   12.4150 C.ar   58  TRP58       0.0152
     42  NE1       41.7280  -42.9390   13.4620 N.ar   58  TRP58      -0.2442
     43  CE2       40.8580  -42.1940   12.7040 C.ar   58  TRP58       0.0810
     44  CE3       38.7050  -42.4930   11.6240 C.ar   58  TRP58       0.0012
     45  CZ2       40.9770  -40.8720   12.2140 C.ar   58  TRP58       0.0191
     46  CZ3       38.8240  -41.1650   11.1360 C.ar   58  TRP58       0.0001
     47  CH2       39.9420  -40.3770   11.4490 C.ar   58  TRP58       0.0015
     48  N         34.7090  -39.2620    7.1500 N.3    75  SER75      -0.1202
     49  CA        34.6050  -39.7100    8.5480 C.3    75  SER75       0.2020
     50  C         35.1510  -38.6990    9.5570 C.2    75  SER75       0.2619
     51  O         35.8000  -39.0450   10.5350 O.2    75  SER75      -0.2717
     52  CB        35.2280  -41.1060    8.7450 C.3    75  SER75       0.2103
     53  OG        36.4290  -41.2500    8.0320 O.3    75  SER75      -0.2182
     54  N         34.8220  -37.4240    9.3280 N.am   76  GLY76      -0.1942
     55  CA        35.2120  -36.3820   10.2830 C.3    76  GLY76       0.2014
     56  C         36.7230  -36.2780   10.3000 C.2    76  GLY76       0.2639
     57  O         37.3210  -36.0550   11.3540 O.2    76  GLY76      -0.2714
     58  N         37.3370  -36.4350    9.1240 N.am   77  ILE77      -0.1963
     59  CA        38.8030  -36.5830    9.0420 C.3    77  ILE77       0.1727
     60  C         39.4790  -35.2500    8.8460 C.2    77  ILE77       0.2616
     61  O         39.2520  -34.5710    7.8430 O.2    77  ILE77      -0.2715
     62  CB        39.2480  -37.5150    7.8820 C.3    77  ILE77       0.0290
     63  CG1       38.5160  -38.8560    7.9550 C.3    77  ILE77       0.0022
     64  CG2       40.8120  -37.6800    7.8620 C.3    77  ILE77       0.0023
     65  CD1       38.7240  -39.6440    6.7040 C.3    77  ILE77       0.0001
     66  N         40.3360  -34.9010    9.7950 N.am   78  THR78      -0.1951
     67  CA        41.1140  -33.6800    9.6900 C.3    78  THR78       0.1897
     68  C         42.2140  -33.7530    8.6230 C.2    78  THR78       0.2313
     69  O         42.9950  -34.7020    8.5520 O.2    78  THR78      -0.2863
     70  CB        41.7530  -33.3090   11.0340 C.3    78  THR78       0.1794
     71  OG1       40.7500  -33.1870   12.0440 O.3    78  THR78      -0.2208
     72  CG2       42.5720  -31.9940   10.9200 C.3    78  THR78       0.0378
     73  N         49.1780  -36.5640    6.9430 N.3    83  ARG83      -0.1245
     74  CA        48.2610  -37.3280    6.1060 C.3    83  ARG83       0.1563
     75  C         48.3920  -37.0540    4.6140 C.2    83  ARG83       0.2260
     76  O         48.2970  -37.9850    3.8050 O.2    83  ARG83      -0.2867
     77  CB        46.8080  -37.1700    6.5690 C.3    83  ARG83       0.0307
     78  CG        46.5320  -38.0690    7.7620 C.3    83  ARG83       0.0489
     79  CD        45.2840  -37.5900    8.4980 C.3    83  ARG83       0.2205
     80  NE        45.0610  -38.2760    9.7810 N.pl3  83  ARG83      -0.0865
     81  CZ        44.0760  -37.9560   10.6390 C.cat  83  ARG83       0.5346
     82  NH1       43.2550  -36.9430   10.3710 N.pl3  83  ARG83       0.1354
     83  NH2       43.9150  -38.6300   11.7800 N.pl3  83  ARG83       0.1354
     84  N         40.9890  -41.7300   20.6930 N.3   122  GLN122     -0.1245
     85  CA        40.9150  -42.7480   19.6370 C.3   122  GLN122      0.1566
     86  C         42.2910  -42.8630   18.9660 C.2   122  GLN122      0.2260
     87  O         42.9770  -41.8430   18.7420 O.2   122  GLN122     -0.2867
     88  CB        39.8040  -42.4190   18.6300 C.3   122  GLN122      0.0367
     89  CG        39.7210  -43.3960   17.4670 C.3   122  GLN122      0.0905
     90  CD        38.5480  -43.1070   16.5310 C.2   122  GLN122      0.2608
     91  OE1       38.0960  -41.9690   16.4060 O.2   122  GLN122     -0.2717
     92  NE2       38.0880  -44.1400   15.8390 N.am  122  GLN122     -0.0878
     93  N         44.4450  -40.3620   15.7810 N.3   125  THR125     -0.1203
     94  CA        43.6290  -39.1830   15.5650 C.3   125  THR125      0.1994
     95  C         44.4030  -37.9310   15.9380 C.2   125  THR125      0.2619
     96  O         45.4480  -37.9970   16.6050 O.2   125  THR125     -0.2717
     97  CB        42.3350  -39.2140   16.3960 C.3   125  THR125      0.1784
     98  OG1       42.6610  -39.2680   17.7930 O.3   125  THR125     -0.2211
     99  CG2       41.4330  -40.4210   15.9740 C.3   125  THR125      0.0376
    100  N         43.9110  -36.7800   15.5080 N.am  126  THR126     -0.1938
    101  CA        44.5140  -35.5120   15.8980 C.3   126  THR126      0.2028
    102  C         44.4030  -35.2750   17.4130 C.2   126  THR126      0.2642
    103  O         45.2180  -34.5490   17.9890 O.2   126  THR126     -0.2714
    104  CB        43.8460  -34.3550   15.1400 C.3   126  THR126      0.1808
    105  OG1       42.4280  -34.5160   15.2380 O.3   126  THR126     -0.2208
    106  CG2       44.2810  -34.3620   13.6420 C.3   126  THR126      0.0379
    107  N         43.4110  -35.8950   18.0490 N.am  127  GLY127     -0.1954
    108  CA        43.3220  -35.9380   19.5250 C.3   127  GLY127      0.1869
    109  C         44.5220  -36.6390   20.1500 C.2   127  GLY127      0.2309
    110  O         45.1320  -36.1140   21.0800 O.2   127  GLY127     -0.2863
    111  N         36.1530  -43.6400   19.3250 N.3   147  THR147     -0.1218
    112  CA        35.8860  -42.5570   20.2630 C.3   147  THR147      0.1862
    113  C         34.7660  -42.9500   21.2680 C.2   147  THR147      0.2287
    114  O         34.7900  -42.5190   22.4370 O.2   147  THR147     -0.2866
    115  CB        35.4970  -41.3060   19.4980 C.3   147  THR147      0.1770
    116  OG1       36.5360  -40.9750   18.5710 O.3   147  THR147     -0.2211
    117  CG2       35.2210  -40.1220   20.4530 C.3   147  THR147      0.0375
    118  N         38.8990  -35.1440   22.1860 N.3   164  THR164     -0.1203
    119  CA        38.2130  -35.4530   20.9250 C.3   164  THR164      0.1994
    120  C         37.6850  -34.1760   20.2560 C.2   164  THR164      0.2617
    121  O         37.8570  -33.0690   20.7900 O.2   164  THR164     -0.2717
    122  CB        37.0880  -36.4870   21.1280 C.3   164  THR164      0.1784
    123  OG1       36.5890  -36.9160   19.8530 O.3   164  THR164     -0.2211
    124  CG2       35.9480  -35.9080   22.0020 C.3   164  THR164      0.0376
    125  N         37.0530  -34.3300   19.0960 N.am  165  ASP165     -0.1973
    126  CA        36.6270  -33.1920   18.3100 C.3   165  ASP165      0.1709
    127  C         35.4640  -32.4550   18.9700 C.2   165  ASP165      0.2293
    128  O         34.5460  -33.0710   19.5220 O.2   165  ASP165     -0.2864
    129  CB        36.2040  -33.6630   16.9270 C.3   165  ASP165      0.1436
    130  CG        37.3540  -34.1820   16.1080 C.2   165  ASP165      0.3671
    131  OD1       38.2420  -34.8720   16.6470 O.co2 165  ASP165     -0.2456
    132  OD2       37.3410  -33.9280   14.8930 O.co2 165  ASP165     -0.2456
    133  N         38.0490  -30.4160    8.1690 N.3   195  TYR195     -0.1241
    134  CA        37.7760  -31.7870    7.6870 C.3   195  TYR195      0.1605
    135  C         37.7680  -31.8040    6.1710 C.2   195  TYR195      0.2264
    136  O         37.2980  -30.8450    5.5360 O.2   195  TYR195     -0.2867
    137  CB        36.3760  -32.2560    8.0820 C.3   195  TYR195      0.0534
    138  CG        36.1170  -32.4510    9.5510 C.ar  195  TYR195     -0.0201
    139  CD1       37.1680  -32.4610   10.4880 C.ar  195  TYR195     -0.0009
    140  CD2       34.8050  -32.6670   10.0030 C.ar  195  TYR195     -0.0009
    141  CE1       36.9090  -32.6530   11.8570 C.ar  195  TYR195      0.0417
    142  CE2       34.5290  -32.8680   11.3660 C.ar  195  TYR195      0.0417
    143  CZ        35.5770  -32.8630   12.2840 C.ar  195  TYR195      0.1957
    144  OH        35.2950  -33.0650   13.6280 O.3   195  TYR195     -0.2866
@<TRIPOS>BOND
     1    76    75    2
     2    75    74    1
     3   136   135    2
     4    74    77    1
     5    74    73    1
     6   135   134    1
     7    77    78    1
     8    65    63    1
     9    48    49    1
    10   134   137    1
    11   134   133    1
    12    78    79    1
    13    61    60    2
    14    64    62    1
    15    62    63    1
    16    62    59    1
    17    53    52    1
    18   137   138    1
    19    79    80    1
    20    49    52    1
    21    49    50    1
    22    69    68    2
    23    68    67    1
    24    60    59    1
    25    60    66   am
    26    59    58    1
    27    58    56   am
    28    32    31   ar
    29    54    50   am
    30    54    55    1
    31   138   140   ar
    32   138   139   ar
    33    50    51    2
    34    67    66    1
    35    67    70    1
    36     1     2    1
    37    80    81    2
    38   140   142   ar
    39    37    36    2
    40    55    56    1
    41    56    57    2
    42    29    30    1
    43    29    26    1
    44    31    30    1
    45    31    33   ar
    46    82    81    1
    47   139   141   ar
    48    81    83    1
    49    72    70    1
    50    70    71    1
    51     2     3    1
    52     2     5    1
    53    46    47   ar
    54    46    44   ar
    55    36    35    1
    56    26    25    1
    57    26    27    1
    58   142   143   ar
    59    47    45   ar
    60    44    41   ar
    61    35    34    1
    62    35    38    1
    63     3     4    2
    64   141   143   ar
    65     5     6    1
    66    45    43   ar
    67   143   144    1
    68    41    43   ar
    69    41    39   ar
    70    27    28    2
    71    43    42   ar
    72    38    39    1
    73    39    40   ar
    74     6     7   ar
    75     6     8   ar
    76    42    40   ar
    77   106   104    1
    78    20    22   ar
    79    20    19   ar
    80     9    10    1
    81    22    24   ar
    82    17    16    2
    83    18    19    1
    84    18    15    1
    85   132   130   ar
    86    19    21   ar
    87   104   105    1
    88   104   101    1
    89   100   101    1
    90   100    95   am
    91    16    15    1
    92    94    93    1
    93    94    95    1
    94    94    97    1
    95    24    23   ar
    96    14    15    1
    97    14    11   am
    98    10    11    1
    99    10    13    1
   100    92    90   am
   101   101   102    1
   102    95    96    2
   103    99    97    1
   104   130   131   ar
   105   130   129    1
   106    21    23   ar
   107    11    12    2
   108    97    98    1
   109    91    90    2
   110    90    89    1
   111   129   126    1
   112   102   103    2
   113   102   107   am
   114    89    88    1
   115   107   108    1
   116   126   127    1
   117   126   125    1
   118   116   115    1
   119    88    85    1
   120    87    86    2
   121    86    85    1
   122   127   128    2
   123   125   120   am
   124   111   112    1
   125   115   112    1
   126   115   117    1
   127   108   109    1
   128    85    84    1
   129   123   122    1
   130   109   110    2
   131   120   121    2
   132   120   119    1
   133   112   113    1
   134   119   122    1
   135   119   118    1
   136   122   124    1
   137   113   114    2
