@<TRIPOS>MOLECULE
tmp/2q2cA00.pdb
 139 132 0 0 0
SMALL
GASTEIGER

@<TRIPOS>ATOM
      1  N         12.2930    2.6000   -1.2520 N.3     8  ASP8       -0.1239
      2  CA        12.9030    1.2760   -1.2680 C.3     8  ASP8        0.1674
      3  C         12.2950    0.4780   -2.4150 C.2     8  ASP8        0.2266
      4  O         11.2440   -0.1430   -2.2580 O.2     8  ASP8       -0.2867
      5  CB        12.7010    0.5610    0.0720 C.3     8  ASP8        0.1410
      6  CG        13.2910   -0.8470    0.0890 C.2     8  ASP8        0.3668
      7  OD1       14.2390   -1.1310   -0.6760 O.co2   8  ASP8       -0.2456
      8  OD2       12.8070   -1.6770    0.8840 O.co2   8  ASP8       -0.2456
      9  N          9.4530   -3.3960   -3.7070 N.3    11  PHE11      -0.1241
     10  CA         8.0940   -3.4920   -3.1950 C.3    11  PHE11       0.1605
     11  C          7.0820   -3.3420   -4.3300 C.2    11  PHE11       0.2264
     12  O          6.2300   -2.4500   -4.3050 O.2    11  PHE11      -0.2867
     13  CB         7.8780   -2.4210   -2.1210 C.3    11  PHE11       0.0534
     14  CG         6.8340   -2.7730   -1.0990 C.ar   11  PHE11      -0.0203
     15  CD1        5.6940   -1.9890   -0.9580 C.ar   11  PHE11      -0.0042
     16  CD2        6.9990   -3.8760   -0.2630 C.ar   11  PHE11      -0.0042
     17  CE1        4.7290   -2.3020   -0.0060 C.ar   11  PHE11      -0.0003
     18  CE2        6.0410   -4.2000    0.6870 C.ar   11  PHE11      -0.0003
     19  CZ         4.9040   -3.4140    0.8180 C.ar   11  PHE11      -0.0000
     20  N         14.9900    0.5390    3.1150 N.3    48  TRP48      -0.1241
     21  CA        13.8690    0.7540    4.0310 C.3    48  TRP48       0.1605
     22  C         14.2810    1.4380    5.3340 C.2    48  TRP48       0.2264
     23  O         13.7220    2.4770    5.6950 O.2    48  TRP48      -0.2867
     24  CB        13.1400   -0.5660    4.3060 C.3    48  TRP48       0.0550
     25  CG        11.8940   -0.4290    5.1410 C.ar   48  TRP48       0.0003
     26  CD1       11.7060   -0.8990    6.4080 C.ar   48  TRP48       0.0946
     27  CD2       10.6690    0.2170    4.7670 C.ar   48  TRP48       0.0152
     28  NE1       10.4420   -0.5900    6.8470 N.ar   48  TRP48      -0.2442
     29  CE2        9.7830    0.0960    5.8620 C.ar   48  TRP48       0.0810
     30  CE3       10.2320    0.8880    3.6140 C.ar   48  TRP48       0.0012
     31  CZ2        8.4830    0.6180    5.8390 C.ar   48  TRP48       0.0191
     32  CZ3        8.9420    1.4090    3.5930 C.ar   48  TRP48       0.0001
     33  CH2        8.0830    1.2700    4.7000 C.ar   48  TRP48       0.0015
     34  N          7.0590    5.0650   -0.3880 N.3    65  SER65      -0.1202
     35  CA         7.5650    3.6980   -0.3630 C.3    65  SER65       0.2020
     36  C          6.4970    2.7150    0.0990 C.2    65  SER65       0.2619
     37  O          6.7950    1.7610    0.8210 O.2    65  SER65      -0.2717
     38  CB         8.8000    3.6180    0.5420 C.3    65  SER65       0.2103
     39  OG         9.5930    2.4920    0.2240 O.3    65  SER65      -0.2182
     40  N          5.2570    2.9500   -0.3290 N.am   66  GLY66      -0.1942
     41  CA         4.1050    2.1740    0.1340 C.3    66  GLY66       0.2014
     42  C          3.9850    2.2090    1.6480 C.2    66  GLY66       0.2639
     43  O          3.6620    1.2000    2.2750 O.2    66  GLY66      -0.2714
     44  N          4.2520    3.3770    2.2290 N.am   67  ILE67      -0.1963
     45  CA         4.3620    3.5250    3.6760 C.3    67  ILE67       0.1727
     46  C          2.9870    3.7050    4.3010 C.2    67  ILE67       0.2616
     47  O          2.2470    4.6190    3.9370 O.2    67  ILE67      -0.2715
     48  CB         5.2800    4.7160    4.0700 C.3    67  ILE67       0.0290
     49  CG1        6.6110    4.6420    3.3180 C.3    67  ILE67       0.0022
     50  CG2        5.5170    4.7470    5.5810 C.3    67  ILE67       0.0023
     51  CD1        7.4560    5.8810    3.4260 C.3    67  ILE67       0.0001
     52  N          2.6570    2.8280    5.2450 N.am   68  THR68      -0.1951
     53  CA         1.3890    2.9010    5.9640 C.3    68  THR68       0.1897
     54  C          1.4170    4.0320    6.9810 C.2    68  THR68       0.2313
     55  O          2.3840    4.1780    7.7320 O.2    68  THR68      -0.2863
     56  CB         1.0670    1.5720    6.6820 C.3    68  THR68       0.1794
     57  OG1        1.0010    0.5140    5.7200 O.3    68  THR68      -0.2208
     58  CG2       -0.2630    1.6560    7.4220 C.3    68  THR68       0.0378
     59  N          4.4260    6.2120   13.6950 N.3    73  ARG73      -0.1245
     60  CA         5.3010    6.9000   12.7510 C.3    73  ARG73       0.1563
     61  C          5.0650    8.4100   12.7650 C.2    73  ARG73       0.2260
     62  O          5.9350    9.1850   12.3690 O.2    73  ARG73      -0.2867
     63  CB         5.1140    6.3370   11.3420 C.3    73  ARG73       0.0307
     64  CG         5.7730    4.9880   11.1490 C.3    73  ARG73       0.0489
     65  CD         5.3160    4.3120    9.8770 C.3    73  ARG73       0.2205
     66  NE         6.0040    3.0360    9.6950 N.pl3  73  ARG73      -0.0865
     67  CZ         5.6180    2.0780    8.8610 C.cat  73  ARG73       0.5346
     68  NH1        4.5320    2.2310    8.1160 N.pl3  73  ARG73       0.1354
     69  NH2        6.3230    0.9590    8.7790 N.pl3  73  ARG73       0.1354
     70  N         -2.7840   -6.1110    5.7640 N.3    88  GLN88      -0.1245
     71  CA        -1.8410   -7.2160    5.8630 C.3    88  GLN88       0.1566
     72  C         -2.5190   -8.5150    5.4540 C.2    88  GLN88       0.2260
     73  O         -3.6950   -8.7440    5.7640 O.2    88  GLN88      -0.2867
     74  CB        -1.2770   -7.3360    7.2810 C.3    88  GLN88       0.0367
     75  CG        -0.4450   -6.1440    7.7350 C.3    88  GLN88       0.0905
     76  CD         0.6650   -5.7910    6.7600 C.2    88  GLN88       0.2608
     77  OE1        1.5060   -6.6240    6.4300 O.2    88  GLN88      -0.2717
     78  NE2        0.6730   -4.5470    6.2990 N.am   88  GLN88      -0.0878
     79  N          9.3400   -8.0890    6.8100 N.3   112  GLN112     -0.1245
     80  CA        10.3080   -7.0130    6.6250 C.3   112  GLN112      0.1566
     81  C         10.3920   -6.2040    7.9160 C.2   112  GLN112      0.2260
     82  O          9.3730   -5.9370    8.5600 O.2   112  GLN112     -0.2867
     83  CB         9.9350   -6.1120    5.4480 C.3   112  GLN112      0.0367
     84  CG        10.9620   -5.0110    5.1740 C.3   112  GLN112      0.0905
     85  CD        10.6060   -4.1270    3.9990 C.2   112  GLN112      0.2608
     86  OE1        9.4580   -4.0790    3.5630 O.2   112  GLN112     -0.2717
     87  NE2       11.5960   -3.4160    3.4810 N.am  112  GLN112     -0.0878
     88  N          7.9310   -2.7350    9.9150 N.3   115  THR115     -0.1203
     89  CA         6.7430   -2.5720    9.0840 C.3   115  THR115      0.1994
     90  C          5.4950   -2.9060    9.8900 C.2   115  THR115      0.2619
     91  O          5.5850   -3.3890   11.0190 O.2   115  THR115     -0.2717
     92  CB         6.7810   -3.4600    7.8070 C.3   115  THR115      0.1784
     93  OG1        6.8300   -4.8430    8.1740 O.3   115  THR115     -0.2211
     94  CG2        7.9770   -3.1160    6.9250 C.3   115  THR115      0.0376
     95  N          4.3340   -2.6420    9.3010 N.am  116  THR116     -0.1938
     96  CA         3.0500   -2.9540    9.9190 C.3   116  THR116      0.2028
     97  C          2.7870   -4.4620    9.9390 C.2   116  THR116      0.2642
     98  O          2.0340   -4.9580   10.7800 O.2   116  THR116     -0.2714
     99  CB         1.8980   -2.2170    9.2140 C.3   116  THR116      0.1808
    100  OG1        1.9940   -2.4140    7.7960 O.3   116  THR116     -0.2208
    101  CG2        1.9600   -0.7260    9.5190 C.3   116  THR116      0.0379
    102  N          3.4190   -5.1790    9.0110 N.am  117  GLY117     -0.1954
    103  CA         3.3810   -6.6380    8.9850 C.3   117  GLY117      0.1869
    104  C          4.1290   -7.2560   10.1490 C.2   117  GLY117      0.2309
    105  O          3.7070   -8.2810   10.6880 O.2   117  GLY117     -0.2863
    106  N         11.0570   -7.0390    1.6760 N.3   137  THR137     -0.1218
    107  CA         9.9790   -8.0170    1.5660 C.3   137  THR137      0.1862
    108  C         10.3700   -9.1160    0.5750 C.2   137  THR137      0.2287
    109  O          9.9990  -10.2760    0.7500 O.2   137  THR137     -0.2866
    110  CB         8.6580   -7.3470    1.1260 C.3   137  THR137      0.1770
    111  OG1        8.3930   -6.2140    1.9630 O.3   137  THR137     -0.2211
    112  CG2        7.4900   -8.3230    1.2180 C.3   137  THR137      0.0375
    113  N          2.8140   -9.6040    4.7270 N.3   154  THR154     -0.1203
    114  CA         3.0840   -8.3550    4.0230 C.3   154  THR154      0.1994
    115  C          1.7930   -7.7370    3.4810 C.2   154  THR154      0.2617
    116  O          0.7090   -8.3090    3.6340 O.2   154  THR154     -0.2717
    117  CB         4.1480   -8.5380    2.8960 C.3   154  THR154      0.1784
    118  OG1        4.5160   -7.2570    2.3620 O.3   154  THR154     -0.2211
    119  CG2        3.6310   -9.4400    1.7700 C.3   154  THR154      0.0376
    120  N          1.9250   -6.5660    2.8590 N.am  155  ASP155     -0.1973
    121  CA         0.8030   -5.8530    2.2570 C.3   155  ASP155      0.1709
    122  C          0.1360   -6.6620    1.1510 C.2   155  ASP155      0.2293
    123  O          0.8100   -7.3920    0.4150 O.2   155  ASP155     -0.2864
    124  CB         1.2630   -4.5000    1.7190 C.3   155  ASP155      0.1436
    125  CG         1.7030   -3.5530    2.8200 C.2   155  ASP155      0.3671
    126  OD1        1.8960   -4.0030    3.9710 O.co2 155  ASP155     -0.2456
    127  OD2        1.8600   -2.3530    2.5300 O.co2 155  ASP155     -0.2456
    128  N         -1.8500    4.1460    2.8410 N.3   185  TYR185     -0.1241
    129  CA        -0.5440    4.6610    2.4630 C.3   185  TYR185      0.1605
    130  C         -0.5560    6.1820    2.4570 C.2   185  TYR185      0.2264
    131  O         -1.5560    6.8100    2.1040 O.2   185  TYR185     -0.2867
    132  CB        -0.1020    4.1570    1.0820 C.3   185  TYR185      0.0534
    133  CG         0.0960    2.6580    0.9320 C.ar  185  TYR185     -0.0201
    134  CD1        0.1580    1.8090    2.0410 C.ar  185  TYR185     -0.0009
    135  CD2        0.2610    2.0970   -0.3320 C.ar  185  TYR185     -0.0009
    136  CE1        0.3450    0.4400    1.8870 C.ar  185  TYR185      0.0417
    137  CE2        0.4500    0.7350   -0.4970 C.ar  185  TYR185      0.0417
    138  CZ         0.4900   -0.0900    0.6100 C.ar  185  TYR185      0.1957
    139  OH         0.6850   -1.4400    0.4300 O.3   185  TYR185     -0.2866
@<TRIPOS>BOND
     1    11    12    2
     2    11    10    1
     3     9    10    1
     4    10    13    1
     5     3     4    2
     6     3     2    1
     7    13    14    1
     8     2     1    1
     9     2     5    1
    10    14    15   ar
    11    14    16   ar
    12    15    17   ar
    13     7     6   ar
    14   137   135   ar
    15   137   138   ar
    16    34    35    1
    17    35    36    1
    18    35    38    1
    19   135   133   ar
    20    40    36   am
    21    40    41    1
    22    16    18   ar
    23    17    19   ar
    24     5     6    1
    25     6     8   ar
    26    36    37    2
    27    41    42    1
    28    39    38    1
    29   123   122    2
    30   139   138    1
    31   108   109    2
    32   108   107    1
    33   138   136   ar
    34    18    19   ar
    35   133   132    1
    36   133   134   ar
    37   132   129    1
    38   110   112    1
    39   110   107    1
    40   110   111    1
    41   122   121    1
    42   107   106    1
    43    42    44   am
    44    42    43    2
    45   124   121    1
    46   124   125    1
    47   119   117    1
    48   136   134   ar
    49   131   130    2
    50    44    45    1
    51   121   120    1
    52   118   117    1
    53   130   129    1
    54   129   128    1
    55   127   125   ar
    56   125   126   ar
    57   120   115   am
    58   117   114    1
    59    20    21    1
    60    49    51    1
    61    49    48    1
    62    87    85   am
    63   115   116    2
    64   115   114    1
    65    86    85    2
    66    32    30   ar
    67    32    33   ar
    68    30    27   ar
    69    45    48    1
    70    45    46    1
    71    47    46    2
    72    85    84    1
    73   114   113    1
    74    21    24    1
    75    21    22    1
    76    48    50    1
    77    46    52   am
    78    24    25    1
    79    33    31   ar
    80    27    25   ar
    81    27    29   ar
    82    25    26   ar
    83    84    83    1
    84    52    53    1
    85    22    23    2
    86    83    80    1
    87    72    73    2
    88    72    71    1
    89    57    56    1
    90    70    71    1
    91    31    29   ar
    92    29    28   ar
    93    71    74    1
    94    53    56    1
    95    53    54    1
    96    78    76   am
    97    26    28   ar
    98    77    76    2
    99    80    79    1
   100    80    81    1
   101    56    58    1
   102    76    75    1
   103    94    92    1
   104    54    55    2
   105    74    75    1
   106   100    99    1
   107    92    93    1
   108    92    89    1
   109    81    82    2
   110    68    67    1
   111    69    67    1
   112    67    66    2
   113   103   102    1
   114   103   104    1
   115   102    97   am
   116    89    90    1
   117    89    88    1
   118    99   101    1
   119    99    96    1
   120    95    90   am
   121    95    96    1
   122    66    65    1
   123    65    64    1
   124    90    91    2
   125    96    97    1
   126    97    98    2
   127   104   105    2
   128    64    63    1
   129    63    60    1
   130    62    61    2
   131    60    61    1
   132    60    59    1
