@<TRIPOS>MOLECULE
tmp/2q2nA00.pdb
 207 205 0 0 0
SMALL
GASTEIGER

@<TRIPOS>ATOM
      1  N         22.8280   -9.5800   13.2920 N.3    12  TYR12      -0.1241
      2  CA        23.7350   -8.8760   12.4030 C.3    12  TYR12       0.1605
      3  C         25.1430   -8.7060   13.0360 C.2    12  TYR12       0.2264
      4  O         26.1610   -8.9710   12.3880 O.2    12  TYR12      -0.2867
      5  CB        23.1050   -7.5250   12.1250 C.3    12  TYR12       0.0534
      6  CG        23.6440   -6.7720   10.9350 C.ar   12  TYR12      -0.0201
      7  CD1       23.1390   -7.0020    9.6500 C.ar   12  TYR12      -0.0009
      8  CD2       24.6370   -5.8020   11.0950 C.ar   12  TYR12      -0.0009
      9  CE1       23.6190   -6.2890    8.5600 C.ar   12  TYR12       0.0417
     10  CE2       25.1200   -5.0780   10.0020 C.ar   12  TYR12       0.0417
     11  CZ        24.5900   -5.3230    8.7390 C.ar   12  TYR12       0.1957
     12  OH        25.0610   -4.6160    7.6460 O.3    12  TYR12      -0.2866
     13  N         33.0140   -3.0980    9.1300 N.3    25  TYR25      -0.1241
     14  CA        32.5270   -2.5500    7.8720 C.3    25  TYR25       0.1605
     15  C         33.1320   -3.2030    6.6350 C.2    25  TYR25       0.2264
     16  O         32.4460   -3.3410    5.6260 O.2    25  TYR25      -0.2867
     17  CB        32.6680   -1.0480    7.8270 C.3    25  TYR25       0.0534
     18  CG        31.5290   -0.4160    8.5500 C.ar   25  TYR25      -0.0201
     19  CD1       30.3010   -0.1790    7.9160 C.ar   25  TYR25      -0.0009
     20  CD2       31.6480   -0.1230    9.9040 C.ar   25  TYR25      -0.0009
     21  CE1       29.2330    0.3820    8.6300 C.ar   25  TYR25       0.0417
     22  CE2       30.5940    0.4300   10.6160 C.ar   25  TYR25       0.0417
     23  CZ        29.4030    0.6810    9.9870 C.ar   25  TYR25       0.1957
     24  OH        28.3790    1.2380   10.7320 O.3    25  TYR25      -0.2866
     25  N         30.9450   -6.1740    6.1670 N.3    28  ILE28      -0.1231
     26  CA        29.6530   -5.7680    5.6160 C.3    28  ILE28       0.1692
     27  C         29.7570   -5.4250    4.1150 C.2    28  ILE28       0.2592
     28  O         28.8270   -5.6760    3.3450 O.2    28  ILE28      -0.2718
     29  CB        29.0850   -4.5640    6.4050 C.3    28  ILE28       0.0266
     30  CG1       28.7320   -5.0010    7.8440 C.3    28  ILE28       0.0019
     31  CG2       27.8300   -3.9770    5.7490 C.3    28  ILE28       0.0020
     32  CD1       28.4480   -3.8180    8.7810 C.3    28  ILE28       0.0001
     33  N         30.8950   -4.8590    3.7290 N.am   29  ARG29      -0.1966
     34  CA        31.1350   -4.3810    2.3710 C.3    29  ARG29       0.1729
     35  C         31.8390   -5.4420    1.5290 C.2    29  ARG29       0.2616
     36  O         32.4670   -5.1250    0.5080 O.2    29  ARG29      -0.2715
     37  CB        32.0060   -3.1370    2.4210 C.3    29  ARG29       0.0348
     38  CG        31.2880   -1.9320    3.0070 C.3    29  ARG29       0.0492
     39  CD        32.2920   -0.8780    3.4680 C.3    29  ARG29       0.2205
     40  NE        33.1150   -0.3630    2.3830 N.pl3  29  ARG29      -0.0865
     41  CZ        32.7370    0.5710    1.5100 C.cat  29  ARG29       0.5346
     42  NH1       31.5290    1.1400    1.5580 N.pl3  29  ARG29       0.1354
     43  NH2       33.5910    0.9530    0.5880 N.pl3  29  ARG29       0.1354
     44  N         31.7860   -6.6860    1.9930 N.am   30  ARG30      -0.1977
     45  CA        32.1810   -7.8240    1.1570 C.3    30  ARG30       0.1597
     46  C         33.6630   -7.7130    0.7290 C.2    30  ARG30       0.2287
     47  O         34.0550   -8.0060   -0.4180 O.2    30  ARG30      -0.2864
     48  CB        31.1890   -7.9620   -0.0230 C.3    30  ARG30       0.0334
     49  CG        29.8510   -8.7320    0.2870 C.3    30  ARG30       0.0492
     50  CD        29.0120   -8.1740    1.4480 C.3    30  ARG30       0.2205
     51  NE        27.7970   -8.9650    1.7110 N.pl3  30  ARG30      -0.0865
     52  CZ        26.8950   -8.7040    2.6670 C.cat  30  ARG30       0.5346
     53  NH1       27.0420   -7.6690    3.4930 N.pl3  30  ARG30       0.1354
     54  NH2       25.8290   -9.4940    2.8040 N.pl3  30  ARG30       0.1354
     55  N         35.6310   -4.9470    0.8930 N.3    32  ARG32      -0.1245
     56  CA        36.0730   -3.5970    0.5350 C.3    32  ARG32       0.1563
     57  C         36.2440   -2.7150    1.7750 C.2    32  ARG32       0.2260
     58  O         35.2540   -2.2160    2.3500 O.2    32  ARG32      -0.2867
     59  CB        35.1050   -2.9750   -0.4740 C.3    32  ARG32       0.0307
     60  CG        35.2510   -3.5250   -1.8860 C.3    32  ARG32       0.0489
     61  CD        34.8070   -4.9880   -2.0390 C.3    32  ARG32       0.2205
     62  NE        34.4720   -5.2840   -3.4350 N.pl3  32  ARG32      -0.0865
     63  CZ        33.7210   -6.3040   -3.8450 C.cat  32  ARG32       0.5346
     64  NH1       33.2070   -7.1590   -2.9790 N.pl3  32  ARG32       0.1354
     65  NH2       33.4820   -6.4710   -5.1370 N.pl3  32  ARG32       0.1354
     66  N         35.7660    7.8240    5.1790 N.3    38  MET38      -0.1245
     67  CA        34.5910    7.0670    5.6030 C.3    38  MET38       0.1570
     68  C         34.7730    6.4510    6.9960 C.2    38  MET38       0.2261
     69  O         33.8440    6.4930    7.8000 O.2    38  MET38      -0.2867
     70  CB        34.2120    5.9890    4.5740 C.3    38  MET38       0.0387
     71  CG        32.9930    5.1480    4.9750 C.3    38  MET38       0.0595
     72  SD        32.3740    4.0020    3.7110 S.3    38  MET38      -0.1393
     73  CE        31.2780    2.9880    4.7060 C.3    38  MET38       0.0692
     74  N         28.3900  -10.4870   11.0620 N.3    87  HIS87      -0.1241
     75  CA        29.4840   -9.6040   10.6460 C.3    87  HIS87       0.1621
     76  C         30.6480   -9.4010   11.6080 C.2    87  HIS87       0.2264
     77  O         31.5920   -8.6650   11.2870 O.2    87  HIS87      -0.2867
     78  CB        28.9400   -8.2340   10.2130 C.3    87  HIS87       0.0745
     79  CG        28.0260   -8.2880    9.0210 C.ar   87  HIS87       0.0817
     80  ND1       28.4600   -8.6400    7.7630 N.ar   87  HIS87      -0.2268
     81  CD2       26.7020   -8.0270    8.9010 C.ar   87  HIS87       0.1154
     82  CE1       27.4480   -8.5860    6.9180 C.ar   87  HIS87       0.1986
     83  NE2       26.3680   -8.2190    7.5850 N.ar   87  HIS87      -0.2212
     84  N         18.0300  -12.6820    2.1680 N.3   119  PHE119     -0.1227
     85  CA        19.3510  -12.1220    2.4490 C.3   119  PHE119      0.1736
     86  C         19.7700  -12.2430    3.8700 C.2   119  PHE119      0.2596
     87  O         20.9320  -12.5150    4.1590 O.2   119  PHE119     -0.2718
     88  CB        19.4610  -10.6540    2.0330 C.3   119  PHE119      0.0547
     89  CG        20.2580  -10.4580    0.8050 C.ar  119  PHE119     -0.0202
     90  CD1       21.5950  -10.8470    0.7640 C.ar  119  PHE119     -0.0042
     91  CD2       19.6800   -9.9170   -0.3320 C.ar  119  PHE119     -0.0042
     92  CE1       22.3440  -10.6800   -0.3950 C.ar  119  PHE119     -0.0003
     93  CE2       20.4060   -9.7580   -1.4820 C.ar  119  PHE119     -0.0003
     94  CZ        21.7460  -10.1360   -1.5180 C.ar  119  PHE119     -0.0000
     95  N         18.8270  -12.0380    4.7670 N.am  120  SER120     -0.1952
     96  CA        19.1430  -12.0550    6.1570 C.3   120  SER120      0.1924
     97  C         18.7760  -13.4100    6.7420 C.2   120  SER120      0.2314
     98  O         19.6040  -14.3530    6.7470 O.2   120  SER120     -0.2863
     99  CB        18.4550  -10.8860    6.8590 C.3   120  SER120      0.2116
    100  OG        19.2370   -9.7060    6.6760 O.3   120  SER120     -0.2180
    101  N         21.2950  -16.8490    7.3230 N.3   124  TYR124     -0.1241
    102  CA        21.7500  -17.2260    8.6790 C.3   124  TYR124      0.1605
    103  C         21.3940  -18.6930    8.9660 C.2   124  TYR124      0.2264
    104  O         22.2500  -19.4870    9.4060 O.2   124  TYR124     -0.2867
    105  CB        21.0970  -16.3480    9.7480 C.3   124  TYR124      0.0534
    106  CG        21.3650  -14.8470    9.6490 C.ar  124  TYR124     -0.0201
    107  CD1       22.0790  -14.2940    8.5700 C.ar  124  TYR124     -0.0009
    108  CD2       20.8810  -13.9740   10.6320 C.ar  124  TYR124     -0.0009
    109  CE1       22.3000  -12.9180    8.4930 C.ar  124  TYR124      0.0417
    110  CE2       21.0910  -12.5890   10.5430 C.ar  124  TYR124      0.0417
    111  CZ        21.8000  -12.0810    9.4740 C.ar  124  TYR124      0.1957
    112  OH        22.0250  -10.7210    9.3700 O.3   124  TYR124     -0.2866
    113  N         15.3230   -2.5090    7.7160 N.3   182  HIS182     -0.1226
    114  CA        16.5560   -2.3380    6.9320 C.3   182  HIS182      0.1752
    115  C         16.2090   -2.5690    5.4630 C.2   182  HIS182      0.2597
    116  O         15.4880   -3.5280    5.1180 O.2   182  HIS182     -0.2718
    117  CB        17.6250   -3.3650    7.3790 C.3   182  HIS182      0.0759
    118  CG        19.0410   -2.9500    7.0830 C.ar  182  HIS182      0.0818
    119  ND1       19.5570   -2.9100    5.8050 N.ar  182  HIS182     -0.2268
    120  CD2       20.0530   -2.5770    7.9070 C.ar  182  HIS182      0.1154
    121  CE1       20.8140   -2.4990    5.8480 C.ar  182  HIS182      0.1986
    122  NE2       21.1410   -2.2930    7.1130 N.ar  182  HIS182     -0.2212
    123  N         16.6870   -1.6690    4.6010 N.am  183  SER183     -0.1938
    124  CA        16.5740   -1.8830    3.1640 C.3   183  SER183      0.2055
    125  C         17.4390   -3.0870    2.7510 C.2   183  SER183      0.2643
    126  O         18.4390   -3.4120    3.4170 O.2   183  SER183     -0.2714
    127  CB        16.9650   -0.6210    2.3750 C.3   183  SER183      0.2130
    128  OG        16.7560   -0.8250    0.9900 O.3   183  SER183     -0.2179
    129  N         17.0120   -3.7500    1.6750 N.am  184  LEU184     -0.1963
    130  CA        17.7240   -4.8620    1.0390 C.3   184  LEU184      0.1713
    131  C         17.7860   -4.6380   -0.4760 C.2   184  LEU184      0.2458
    132  O         17.0250   -3.8380   -1.0230 O.2   184  LEU184     -0.2730
    133  CB        17.0250   -6.2080    1.3300 C.3   184  LEU184      0.0310
    134  CG        17.2510   -6.7790    2.7480 C.3   184  LEU184      0.0022
    135  CD1       16.6130   -8.1400    2.9000 C.3   184  LEU184      0.0001
    136  CD2       18.7290   -6.8620    3.0940 C.3   184  LEU184      0.0001
    137  N         18.7090   -5.3280   -1.1590 N.am  185  PRO185     -0.2727
    138  CA        18.7430   -5.1560   -2.6110 C.3   185  PRO185      0.1402
    139  C         17.3810   -5.5200   -3.2130 C.2   185  PRO185      0.2269
    140  O         16.7470   -6.4870   -2.7700 O.2   185  PRO185     -0.2865
    141  CB        19.8270   -6.1340   -3.0510 C.3   185  PRO185      0.0296
    142  CG        20.7380   -6.2260   -1.8360 C.3   185  PRO185      0.0237
    143  CD        19.7710   -6.2420   -0.6820 C.3   185  PRO185      0.0939
    144  N         16.7090   -6.8200   -5.8720 N.3   187  LYS187     -0.1245
    145  CA        16.7580   -8.0950   -6.5760 C.3   187  LYS187      0.1561
    146  C         16.1380   -9.2760   -5.8100 C.2   187  LYS187      0.2260
    147  O         15.9100  -10.3180   -6.4070 O.2   187  LYS187     -0.2867
    148  CB        18.1860   -8.4080   -7.0610 C.3   187  LYS187      0.0271
    149  CG        19.1630   -8.8380   -5.9900 C.3   187  LYS187      0.0035
    150  CD        20.6000   -8.5340   -6.4210 C.3   187  LYS187      0.0206
    151  CE        21.5640   -8.7260   -5.2480 C.3   187  LYS187      0.1093
    152  NZ        22.7250   -7.7710   -5.2580 N.3   187  LYS187     -0.1314
    153  N         18.6980    2.6060    5.8890 N.3   221  SER221     -0.1202
    154  CA        20.0580    2.0890    6.0820 C.3   221  SER221      0.2020
    155  C         20.5980    1.2460    4.9150 C.2   221  SER221      0.2619
    156  O         21.4120    0.3290    5.1150 O.2   221  SER221     -0.2717
    157  CB        20.1730    1.3080    7.4060 C.3   221  SER221      0.2103
    158  OG        19.4650    1.9260    8.4750 O.3   221  SER221     -0.2182
    159  N         20.1630    1.5610    3.6950 N.am  222  GLU222     -0.1965
    160  CA        20.5980    0.7890    2.5200 C.3   222  GLU222      0.1733
    161  C         22.1080    0.8840    2.3470 C.2   222  GLU222      0.2617
    162  O         22.7050    1.9190    2.6850 O.2   222  GLU222     -0.2715
    163  CB        19.8850    1.2450    1.2360 C.3   222  GLU222      0.0429
    164  CG        20.0580    2.7270    0.8740 C.3   222  GLU222      0.1163
    165  CD        19.3440    3.1030   -0.4390 C.2   222  GLU222      0.3649
    166  OE1       18.5000    4.0300   -0.4420 O.co2 222  GLU222     -0.2457
    167  OE2       19.6440    2.4900   -1.4640 O.co2 222  GLU222     -0.2457
    168  N         22.7110   -0.2010    1.8540 N.am  223  GLY223     -0.1940
    169  CA        24.1120   -0.1750    1.4090 C.3   223  GLY223      0.2014
    170  C         24.2710    0.5310    0.0670 C.2   223  GLY223      0.2639
    171  O         23.2780    0.8010   -0.5980 O.2   223  GLY223     -0.2714
    172  N         25.5170    0.8260   -0.3210 N.am  224  ASN224     -0.1958
    173  CA        25.8140    1.4310   -1.6100 C.3   224  ASN224      0.1819
    174  C         26.4220    0.3840   -2.5410 C.2   224  ASN224      0.2622
    175  O         27.6320    0.1250   -2.5240 O.2   224  ASN224     -0.2715
    176  CB        26.7210    2.6670   -1.4490 C.3   224  ASN224      0.1195
    177  CG        27.2040    3.2500   -2.7940 C.2   224  ASN224      0.2630
    178  OD1       28.3830    3.6060   -2.9350 O.2   224  ASN224     -0.2716
    179  ND2       26.3020    3.3590   -3.7680 N.am  224  ASN224     -0.0877
    180  N         25.5390   -0.2430   -3.3120 N.am  225  THR225     -0.1937
    181  CA        25.9060   -1.1440   -4.4000 C.3   225  THR225      0.2013
    182  C         25.2840   -0.5730   -5.6930 C.2   225  THR225      0.2484
    183  O         24.3850    0.2680   -5.6050 O.2   225  THR225     -0.2729
    184  CB        25.3700   -2.5640   -4.1190 C.3   225  THR225      0.1807
    185  OG1       23.9490   -2.5610   -4.2450 O.3   225  THR225     -0.2208
    186  CG2       25.7350   -3.0110   -2.7200 C.3   225  THR225      0.0379
    187  N         25.7580   -1.0070   -6.8890 N.am  226  PRO226     -0.2726
    188  CA        25.2090   -0.5050   -8.1700 C.3   226  PRO226      0.1402
    189  C         23.7130   -0.7880   -8.4210 C.2   226  PRO226      0.2269
    190  O         23.0590   -0.0310   -9.1340 O.2   226  PRO226     -0.2865
    191  CB        26.0710   -1.2090   -9.2360 C.3   226  PRO226      0.0296
    192  CG        27.3070   -1.6350   -8.5160 C.3   226  PRO226      0.0237
    193  CD        26.8740   -1.9430   -7.1100 C.3   226  PRO226      0.0939
    194  N         18.1980   -2.2550   -3.8240 N.3   229  TRP229     -0.1241
    195  CA        17.7320   -1.3700   -2.7400 C.3   229  TRP229      0.1605
    196  C         16.3080   -0.8430   -2.6990 C.2   229  TRP229      0.2264
    197  O         15.9200    0.1440   -3.3500 O.2   229  TRP229     -0.2867
    198  CB        18.7920   -0.5010   -2.0600 C.3   229  TRP229      0.0550
    199  CG        20.0890   -1.2300   -1.9150 C.ar  229  TRP229      0.0003
    200  CD1       21.0610   -1.3350   -2.8690 C.ar  229  TRP229      0.0946
    201  CD2       20.5570   -1.9770   -0.7790 C.ar  229  TRP229      0.0152
    202  NE1       22.1100   -2.0700   -2.3930 N.ar  229  TRP229     -0.2442
    203  CE2       21.8340   -2.4770   -1.1140 C.ar  229  TRP229      0.0810
    204  CE3       20.0340   -2.2570    0.4970 C.ar  229  TRP229      0.0012
    205  CZ2       22.6030   -3.2420   -0.2250 C.ar  229  TRP229      0.0191
    206  CZ3       20.8030   -3.0330    1.3800 C.ar  229  TRP229      0.0001
    207  CH2       22.0690   -3.5150    1.0100 C.ar  229  TRP229      0.0015
@<TRIPOS>BOND
     1   191   192    1
     2   191   188    1
     3   190   189    2
     4   192   193    1
     5   189   188    1
     6   188   187    1
     7   193   187    1
     8   148   145    1
     9   148   149    1
    10   187   182   am
    11   145   144    1
    12   145   146    1
    13   150   149    1
    14   150   151    1
    15   147   146    2
    16   182   183    2
    17   182   181    1
    18   152   151    1
    19    65    63    1
    20   181   184    1
    21   181   180    1
    22   185   184    1
    23   184   186    1
    24    63    62    2
    25    63    64    1
    26   194   195    1
    27   179   177   am
    28    62    61    1
    29   197   196    2
    30   180   174   am
    31   139   140    2
    32   139   138    1
    33   141   138    1
    34   141   142    1
    35   178   177    2
    36   200   202   ar
    37   200   199   ar
    38   177   176    1
    39   195   196    1
    40   195   198    1
    41   138   137    1
    42   174   175    2
    43   174   173    1
    44   202   203   ar
    45   198   199    1
    46    61    60    1
    47   199   201   ar
    48    60    59    1
    49   142   143    1
    50   173   176    1
    51   173   172    1
    52    94    93   ar
    53    94    92   ar
    54    93    91   ar
    55   167   165   ar
    56   137   143    1
    57   137   131   am
    58   203   201   ar
    59   203   205   ar
    60   132   131    2
    61   201   204   ar
    62   171   170    2
    63   131   130    1
    64    59    56    1
    65   166   165   ar
    66   165   164    1
    67    47    46    2
    68    92    90   ar
    69    91    89   ar
    70   172   170   am
    71   205   207   ar
    72    48    49    1
    73    48    45    1
    74   170   169    1
    75    49    50    1
    76   204   206   ar
    77    36    35    2
    78    56    55    1
    79    56    57    1
    80    43    41    1
    81    46    45    1
    82    90    89   ar
    83    89    88    1
    84   164   163    1
    85   128   127    1
    86   207   206   ar
    87   130   133    1
    88   130   129    1
    89    45    44    1
    90   163   160    1
    91   133   134    1
    92   169   168    1
    93    50    51    1
    94    41    42    1
    95    41    40    2
    96    35    44   am
    97    35    34    1
    98   129   125   am
    99    51    52    2
   100    57    58    2
   101   168   161   am
   102    88    85    1
   103    84    85    1
   104   161   160    1
   105   161   162    2
   106    34    37    1
   107    34    33    1
   108   127   124    1
   109    40    39    1
   110    37    38    1
   111    85    86    1
   112   160   159    1
   113    52    54    1
   114    52    53    1
   115   134   135    1
   116   134   136    1
   117   125   124    1
   118   125   126    2
   119    38    39    1
   120   124   123    1
   121    28    27    2
   122   159   155   am
   123    72    73    1
   124    72    71    1
   125    33    27   am
   126    86    87    2
   127    86    95   am
   128    27    26    1
   129    70    71    1
   130    70    67    1
   131   123   115   am
   132    95    96    1
   133   155   156    2
   134   155   154    1
   135   116   115    2
   136    66    67    1
   137   115   114    1
   138    67    68    1
   139    26    25    1
   140    26    29    1
   141    16    15    2
   142    31    29    1
   143   119   121   ar
   144   119   118   ar
   145   121   122   ar
   146   153   154    1
   147   154   157    1
   148    96    97    1
   149    96    99    1
   150    29    30    1
   151    15    14    1
   152   100    99    1
   153    97    98    2
   154    82    83   ar
   155    82    80   ar
   156   114   117    1
   157   114   113    1
   158    68    69    2
   159   118   117    1
   160   118   120   ar
   161   122   120   ar
   162   101   102    1
   163   157   158    1
   164    83    81   ar
   165    12    11    1
   166    80    79   ar
   167    17    14    1
   168    17    18    1
   169    30    32    1
   170    14    13    1
   171    19    18   ar
   172    19    21   ar
   173   109   107   ar
   174   109   111   ar
   175    18    20   ar
   176     9    11   ar
   177     9     7   ar
   178   107   106   ar
   179    21    23   ar
   180   102   103    1
   181   102   105    1
   182    11    10   ar
   183    81    79   ar
   184   103   104    2
   185    79    78    1
   186   112   111    1
   187   111   110   ar
   188   106   105    1
   189   106   108   ar
   190     7     6   ar
   191    20    22   ar
   192    23    22   ar
   193    23    24    1
   194    10     8   ar
   195    78    75    1
   196   110   108   ar
   197    75    74    1
   198    75    76    1
   199     6     8   ar
   200     6     5    1
   201    77    76    2
   202     5     2    1
   203     4     3    2
   204     2     3    1
   205     2     1    1
