@<TRIPOS>MOLECULE
tmp/2q2oA00.pdb
 191 189 0 0 0
SMALL
GASTEIGER

@<TRIPOS>ATOM
      1  N          1.8110   -9.3810  -13.2110 N.3    10  TYR10      -0.1241
      2  CA         0.9870   -8.7720  -12.1260 C.3    10  TYR10       0.1605
      3  C         -0.4210   -8.5630  -12.7370 C.2    10  TYR10       0.2264
      4  O         -1.4610   -8.8130  -12.1020 O.2    10  TYR10      -0.2867
      5  CB         1.6770   -7.4330  -11.7380 C.3    10  TYR10       0.0534
      6  CG         1.1020   -6.6550  -10.6100 C.ar   10  TYR10      -0.0201
      7  CD1        1.5370   -6.8930   -9.3040 C.ar   10  TYR10      -0.0009
      8  CD2        0.1440   -5.6600  -10.8360 C.ar   10  TYR10      -0.0009
      9  CE1        1.0340   -6.2000   -8.2540 C.ar   10  TYR10       0.0417
     10  CE2       -0.3730   -4.9060   -9.7520 C.ar   10  TYR10       0.0417
     11  CZ         0.0920   -5.2010   -8.4700 C.ar   10  TYR10       0.1957
     12  OH        -0.3790   -4.5240   -7.3630 O.3    10  TYR10      -0.2866
     13  N         -8.5050   -3.1350   -8.6740 N.3    23  TYR23      -0.1241
     14  CA        -7.9380   -2.3970   -7.5210 C.3    23  TYR23       0.1605
     15  C         -8.4020   -3.1560   -6.2450 C.2    23  TYR23       0.2264
     16  O         -7.6900   -3.2280   -5.2420 O.2    23  TYR23      -0.2867
     17  CB        -8.5130   -0.9550   -7.6050 C.3    23  TYR23       0.0534
     18  CG        -8.1200    0.1970   -6.6440 C.ar   23  TYR23      -0.0201
     19  CD1       -8.9810    1.2940   -6.5160 C.ar   23  TYR23      -0.0009
     20  CD2       -6.8850    0.2570   -5.9190 C.ar   23  TYR23      -0.0009
     21  CE1       -8.6990    2.4200   -5.6400 C.ar   23  TYR23       0.0417
     22  CE2       -6.5770    1.4160   -5.0630 C.ar   23  TYR23       0.0417
     23  CZ        -7.5020    2.4860   -4.9410 C.ar   23  TYR23       0.1957
     24  OH        -7.2910    3.6310   -4.1430 O.3    23  TYR23      -0.2866
     25  N         -6.0330   -6.1020   -5.8030 N.3    26  ILE26      -0.1231
     26  CA        -4.7590   -5.5930   -5.2610 C.3    26  ILE26       0.1692
     27  C         -4.8440   -5.2280   -3.7610 C.2    26  ILE26       0.2592
     28  O         -3.9050   -5.4770   -3.0010 O.2    26  ILE26      -0.2718
     29  CB        -4.3290   -4.2450   -5.9820 C.3    26  ILE26       0.0266
     30  CG1       -4.2850   -4.3830   -7.4710 C.3    26  ILE26       0.0019
     31  CG2       -2.9330   -3.7820   -5.5270 C.3    26  ILE26       0.0020
     32  CD1       -3.3000   -5.1900   -7.9120 C.3    26  ILE26       0.0001
     33  N         -5.9720   -4.6400   -3.3600 N.am   27  ARG27      -0.1966
     34  CA        -6.2300   -4.2150   -2.0050 C.3    27  ARG27       0.1729
     35  C         -6.7660   -5.3690   -1.1280 C.2    27  ARG27       0.2616
     36  O         -7.3910   -5.1580   -0.0510 O.2    27  ARG27      -0.2715
     37  CB        -7.2480   -3.0870   -2.0270 C.3    27  ARG27       0.0348
     38  CG        -6.7490   -1.8140   -2.7350 C.3    27  ARG27       0.0492
     39  CD        -7.8720   -0.7460   -2.8340 C.3    27  ARG27       0.2205
     40  NE        -8.8370   -0.7110   -1.7180 N.pl3  27  ARG27      -0.0865
     41  CZ        -8.7540    0.1470   -0.6990 C.cat  27  ARG27       0.5346
     42  NH1       -7.7460    1.0170   -0.6490 N.pl3  27  ARG27       0.1354
     43  NH2       -9.6710    0.1500    0.2490 N.pl3  27  ARG27       0.1354
     44  N         -6.5230   -6.5740   -1.6040 N.am   28  ARG28      -0.1977
     45  CA        -6.8660   -7.7940   -0.8870 C.3    28  ARG28       0.1597
     46  C         -8.3630   -7.8480   -0.5080 C.2    28  ARG28       0.2287
     47  O         -8.7210   -8.1560    0.6280 O.2    28  ARG28      -0.2864
     48  CB        -5.9020   -7.9930    0.3120 C.3    28  ARG28       0.0334
     49  CG        -4.6440   -8.8510   -0.0250 C.3    28  ARG28       0.0492
     50  CD        -3.8940   -8.2550   -1.1830 C.3    28  ARG28       0.2205
     51  NE        -2.7600   -9.0370   -1.6640 N.pl3  28  ARG28      -0.0865
     52  CZ        -1.9580   -8.6600   -2.6710 C.cat  28  ARG28       0.5346
     53  NH1       -2.1210   -7.4710   -3.2920 N.pl3  28  ARG28       0.1354
     54  NH2       -0.9630   -9.4720   -3.0480 N.pl3  28  ARG28       0.1354
     55  N        -10.5870   -5.2580   -0.4790 N.3    30  ARG30      -0.1245
     56  CA       -11.1370   -3.9810   -0.0080 C.3    30  ARG30       0.1563
     57  C        -11.4580   -3.1070   -1.1990 C.2    30  ARG30       0.2260
     58  O        -10.5750   -2.6200   -1.8890 O.2    30  ARG30      -0.2867
     59  CB       -10.1700   -3.2720    0.9660 C.3    30  ARG30       0.0307
     60  CG       -10.2570   -3.8080    2.4310 C.3    30  ARG30       0.0489
     61  CD        -9.7570   -5.2650    2.5480 C.3    30  ARG30       0.2205
     62  NE        -9.4860   -5.6570    3.9480 N.pl3  30  ARG30      -0.0865
     63  CZ        -8.6380   -6.6210    4.3160 C.cat  30  ARG30       0.5346
     64  NH1       -7.9810   -7.3050    3.3940 N.pl3  30  ARG30       0.1354
     65  NH2       -8.4420   -6.9140    5.6120 N.pl3  30  ARG30       0.1354
     66  N         -3.6960  -10.4390  -10.9460 N.3    85  HIS85      -0.1241
     67  CA        -4.7950   -9.5840  -10.4490 C.3    85  HIS85       0.1621
     68  C         -5.9700   -9.3480  -11.3850 C.2    85  HIS85       0.2264
     69  O         -6.8510   -8.5690  -11.0270 O.2    85  HIS85      -0.2867
     70  CB        -4.2630   -8.2120   -9.9550 C.3    85  HIS85       0.0745
     71  CG        -3.3720   -8.3050   -8.7500 C.ar   85  HIS85       0.0817
     72  ND1       -3.8570   -8.5430   -7.4850 N.ar   85  HIS85      -0.2268
     73  CD2       -2.0280   -8.1750   -8.6160 C.ar   85  HIS85       0.1154
     74  CE1       -2.8600   -8.5720   -6.6190 C.ar   85  HIS85       0.1986
     75  NE2       -1.7320   -8.3780   -7.2820 N.ar   85  HIS85      -0.2212
     76  N          6.6500  -12.4420   -2.2060 N.3   117  PHE117     -0.1227
     77  CA         5.3270  -11.8780   -2.4940 C.3   117  PHE117      0.1736
     78  C          4.9260  -11.8860   -3.9180 C.2   117  PHE117      0.2596
     79  O          3.7620  -11.7750   -4.2230 O.2   117  PHE117     -0.2718
     80  CB         5.2230  -10.4260   -2.0180 C.3   117  PHE117      0.0547
     81  CG         4.6500  -10.3080   -0.6720 C.ar  117  PHE117     -0.0202
     82  CD1        5.4260   -9.9250    0.3870 C.ar  117  PHE117     -0.0042
     83  CD2        3.3130  -10.6360   -0.4450 C.ar  117  PHE117     -0.0042
     84  CE1        4.8890   -9.8510    1.6840 C.ar  117  PHE117     -0.0003
     85  CE2        2.7810  -10.5640    0.8280 C.ar  117  PHE117     -0.0003
     86  CZ         3.5680  -10.1600    1.8940 C.ar  117  PHE117     -0.0000
     87  N          5.8900  -11.9200   -4.8120 N.am  118  SER118     -0.1952
     88  CA         5.5800  -11.8900   -6.1750 C.3   118  SER118      0.1924
     89  C          5.9810  -13.2030   -6.8500 C.2   118  SER118      0.2314
     90  O          5.1340  -14.0990   -7.0700 O.2   118  SER118     -0.2863
     91  CB         6.2590  -10.6780   -6.8150 C.3   118  SER118      0.2116
     92  OG         5.7050   -9.4690   -6.2670 O.3   118  SER118     -0.2180
     93  N          9.2230   -2.4080   -7.5080 N.3   180  CYS180     -0.1221
     94  CA         8.0260   -2.2580   -6.6890 C.3   180  CYS180      0.1808
     95  C          8.4040   -2.5700   -5.2510 C.2   180  CYS180      0.2602
     96  O          9.0870   -3.5510   -4.9660 O.2   180  CYS180     -0.2717
     97  CB         6.8310   -3.1610   -7.1160 C.3   180  CYS180      0.0970
     98  SG         5.2190   -2.7840   -6.2340 S.3   180  CYS180     -0.0800
     99  N          7.9850   -1.6800   -4.3700 N.am  181  SER181     -0.1938
    100  CA         8.1530   -1.8280   -2.9090 C.3   181  SER181      0.2055
    101  C          7.2490   -2.9730   -2.5210 C.2   181  SER181      0.2643
    102  O          6.2510   -3.2430   -3.2170 O.2   181  SER181     -0.2714
    103  CB         7.7500   -0.5280   -2.2330 C.3   181  SER181      0.2130
    104  OG         7.6700   -0.6460   -0.7980 O.3   181  SER181     -0.2179
    105  N          7.6070   -3.6530   -1.4330 N.am  182  LEU182     -0.1963
    106  CA         6.8580   -4.7260   -0.8650 C.3   182  LEU182      0.1713
    107  C          6.9110   -4.4970    0.6500 C.2   182  LEU182      0.2458
    108  O          7.7640   -3.7500    1.1370 O.2   182  LEU182     -0.2730
    109  CB         7.5010   -6.0800   -1.2150 C.3   182  LEU182      0.0310
    110  CG         7.3000   -6.6010   -2.6730 C.3   182  LEU182      0.0022
    111  CD1        8.0750   -7.9470   -2.8300 C.3   182  LEU182      0.0001
    112  CD2        5.7880   -6.8090   -3.0370 C.3   182  LEU182      0.0001
    113  N          5.9930   -5.1590    1.3920 N.am  183  PRO183     -0.2727
    114  CA         5.9150   -5.0820    2.8580 C.3   183  PRO183      0.1402
    115  C          7.2860   -5.4020    3.4480 C.2   183  PRO183      0.2269
    116  O          7.9930   -6.2930    2.9310 O.2   183  PRO183     -0.2865
    117  CB         4.9200   -6.1550    3.1940 C.3   183  PRO183      0.0296
    118  CG         4.0200   -6.1940    2.0170 C.3   183  PRO183      0.0237
    119  CD         4.9120   -5.9950    0.8230 C.3   183  PRO183      0.0939
    120  N          8.1230   -6.7500    6.0950 N.3   185  LYS185     -0.1245
    121  CA         8.1180   -8.0950    6.6610 C.3   185  LYS185      0.1561
    122  C          8.7460   -9.2130    5.8050 C.2   185  LYS185      0.2260
    123  O          9.1070  -10.2470    6.3550 O.2   185  LYS185     -0.2867
    124  CB         6.7040   -8.5040    7.0930 C.3   185  LYS185      0.0271
    125  CG         5.7880   -8.8000    5.9730 C.3   185  LYS185      0.0035
    126  CD         4.4010   -8.1640    6.1950 C.3   185  LYS185      0.0206
    127  CE         3.3100   -9.0740    5.5870 C.3   185  LYS185      0.1093
    128  NZ         3.1910  -10.2810    6.4770 N.3   185  LYS185     -0.1314
    129  N          5.7820    2.7390   -5.5250 N.3   219  SER219     -0.1202
    130  CA         4.4140    2.2610   -5.8420 C.3   219  SER219      0.2020
    131  C          3.9630    1.4270   -4.6620 C.2   219  SER219      0.2619
    132  O          3.3080    0.3970   -4.8480 O.2   219  SER219     -0.2717
    133  CB         4.3660    1.4050   -7.1340 C.3   219  SER219      0.2103
    134  OG         4.9130    2.1170   -8.2320 O.3   219  SER219     -0.2182
    135  N          4.3480    1.8450   -3.4500 N.am  220  GLU220     -0.1965
    136  CA         4.0400    1.0500   -2.2790 C.3   220  GLU220      0.1733
    137  C          2.5340    1.0960   -2.0430 C.2   220  GLU220      0.2617
    138  O          1.8890    2.0960   -2.3650 O.2   220  GLU220     -0.2715
    139  CB         4.8400    1.5170   -1.0660 C.3   220  GLU220      0.0429
    140  CG         4.4310    2.8610   -0.5590 C.3   220  GLU220      0.1163
    141  CD         5.0610    3.2890    0.7770 C.2   220  GLU220      0.3649
    142  OE1        6.0920    2.7460    1.2340 O.co2 220  GLU220     -0.2457
    143  OE2        4.5160    4.2230    1.3660 O.co2 220  GLU220     -0.2457
    144  N          1.9730    0.0080   -1.5170 N.am  221  GLY221     -0.1940
    145  CA         0.5870    0.0220   -1.0930 C.3   221  GLY221      0.2014
    146  C          0.4420    0.7570    0.2290 C.2   221  GLY221      0.2639
    147  O          1.4170    1.0180    0.9310 O.2   221  GLY221     -0.2714
    148  N         -0.7910    1.0800    0.5800 N.am  222  ASN222     -0.1958
    149  CA        -1.0440    1.6850    1.8670 C.3   222  ASN222      0.1819
    150  C         -1.5830    0.6840    2.8870 C.2   222  ASN222      0.2622
    151  O         -2.7830    0.3380    2.8550 O.2   222  ASN222     -0.2715
    152  CB        -1.9680    2.8870    1.7370 C.3   222  ASN222      0.1195
    153  CG        -2.5570    3.2600    3.0430 C.2   222  ASN222      0.2630
    154  OD1       -1.8540    3.2110    4.0800 O.2   222  ASN222     -0.2716
    155  ND2       -3.8660    3.5790    3.0530 N.am  222  ASN222     -0.0877
    156  N         -0.6970    0.1910    3.7610 N.am  223  THR223     -0.1937
    157  CA        -1.0950   -0.7340    4.8530 C.3   223  THR223      0.2013
    158  C         -0.4520   -0.2680    6.1590 C.2   223  THR223      0.2484
    159  O          0.4590    0.5780    6.1360 O.2   223  THR223     -0.2729
    160  CB        -0.7300   -2.2510    4.5940 C.3   223  THR223      0.1807
    161  OG1        0.6790   -2.4640    4.7730 O.3   223  THR223     -0.2208
    162  CG2       -1.1580   -2.7480    3.2090 C.3   223  THR223      0.0379
    163  N         -0.8860   -0.8430    7.3100 N.am  224  PRO224     -0.2715
    164  CA        -0.2890   -0.3310    8.5590 C.3   224  PRO224      0.1536
    165  C          1.1810   -0.7470    8.7270 C.2   224  PRO224      0.2598
    166  O          1.9430   -0.0540    9.3980 O.2   224  PRO224     -0.2715
    167  CB        -1.1710   -0.9160    9.6590 C.3   224  PRO224      0.0310
    168  CG        -2.2840   -1.7080    8.9630 C.3   224  PRO224      0.0237
    169  CD        -1.8430   -1.9440    7.5470 C.3   224  PRO224      0.0939
    170  N          1.5610   -1.8580    8.1170 N.am  225  ASP225     -0.1972
    171  CA         2.9550   -2.3340    8.1050 C.3   225  ASP225      0.1709
    172  C          3.9100   -1.4100    7.2900 C.2   225  ASP225      0.2293
    173  O          3.5020   -0.8010    6.2840 O.2   225  ASP225     -0.2864
    174  CB         2.9950   -3.7520    7.5040 C.3   225  ASP225      0.1436
    175  CG         1.9550   -4.7020    8.1330 C.2   225  ASP225      0.3671
    176  OD1        1.9770   -4.8880    9.3920 O.co2 225  ASP225     -0.2456
    177  OD2        1.1240   -5.2610    7.3490 O.co2 225  ASP225     -0.2456
    178  N          6.6960   -0.5940    4.5790 N.3   227  TRP227     -0.1241
    179  CA         7.1320   -1.1530    3.2760 C.3   227  TRP227      0.1605
    180  C          8.5810   -0.8080    3.0190 C.2   227  TRP227      0.2264
    181  O          9.1330    0.1070    3.6210 O.2   227  TRP227     -0.2867
    182  CB         6.2910   -0.6040    2.1060 C.3   227  TRP227      0.0550
    183  CG         4.8740   -1.1820    2.0870 C.ar  227  TRP227      0.0003
    184  CD1        3.9490   -1.1080    3.1090 C.ar  227  TRP227      0.0946
    185  CD2        4.2200   -1.8330    0.9950 C.ar  227  TRP227      0.0152
    186  NE1        2.7940   -1.7300    2.7370 N.ar  227  TRP227     -0.2442
    187  CE2        2.9240   -2.1870    1.4480 C.ar  227  TRP227      0.0810
    188  CE3        4.6110   -2.1790   -0.3310 C.ar  227  TRP227      0.0012
    189  CZ2        2.0010   -2.8520    0.6310 C.ar  227  TRP227      0.0191
    190  CZ3        3.7180   -2.8420   -1.1230 C.ar  227  TRP227      0.0001
    191  CH2        2.4220   -3.1990   -0.6460 C.ar  227  TRP227      0.0015
@<TRIPOS>BOND
     1     1     2    1
     2     3     2    1
     3     3     4    2
     4     2     5    1
     5     5     6    1
     6    68    69    2
     7    68    67    1
     8    66    67    1
     9     8     6   ar
    10     8    10   ar
    11     6     7   ar
    12    67    70    1
    13    70    71    1
    14    10    11   ar
    15     7     9   ar
    16    71    73   ar
    17    71    72   ar
    18    13    14    1
    19    73    75   ar
    20    11     9   ar
    21    11    12    1
    22   134   133    1
    23    32    30    1
    24    17    14    1
    25    17    18    1
    26    14    15    1
    27    93    94    1
    28    72    74   ar
    29    30    29    1
    30    75    74   ar
    31   133   130    1
    32    97    94    1
    33    97    98    1
    34    90    89    2
    35    89    88    1
    36    91    92    1
    37    91    88    1
    38    94    95    1
    39    18    19   ar
    40    18    20   ar
    41    19    21   ar
    42    15    16    2
    43    88    87    1
    44    29    31    1
    45    29    26    1
    46    20    22   ar
    47   130   129    1
    48   130   131    1
    49    25    26    1
    50    21    23   ar
    51    26    27    1
    52    95    96    2
    53    95    99   am
    54    22    23   ar
    55    23    24    1
    56   132   131    2
    57    87    78   am
    58   131   135   am
    59    99   100    1
    60    79    78    2
    61    78    77    1
    62    27    33   am
    63    27    28    2
    64   135   136    1
    65    33    34    1
    66    53    52    1
    67   102   101    2
    68    54    52    1
    69   112   110    1
    70   100   101    1
    71   100   103    1
    72    39    38    1
    73    39    40    1
    74   111   110    1
    75    38    37    1
    76   110   109    1
    77    52    51    2
    78   101   105   am
    79    77    76    1
    80    77    80    1
    81   138   137    2
    82   136   137    1
    83   136   139    1
    84   103   104    1
    85   137   144   am
    86    37    34    1
    87    80    81    1
    88    34    35    1
    89    58    57    2
    90    40    41    2
    91    51    50    1
    92    44    35   am
    93    44    45    1
    94   144   145    1
    95   105   106    1
    96   109   106    1
    97    57    56    1
    98    50    49    1
    99    35    36    2
   100   190   191   ar
   101   190   188   ar
   102   145   146    1
   103   139   140    1
   104    45    46    1
   105    45    48    1
   106   106   107    1
   107    41    42    1
   108    41    43    1
   109    81    83   ar
   110    81    82   ar
   111   191   189   ar
   112   140   141    1
   113    46    47    2
   114    55    56    1
   115    83    85   ar
   116   188   185   ar
   117    49    48    1
   118    56    59    1
   119   146   148   am
   120   146   147    2
   121    82    84   ar
   122   148   149    1
   123   189   187   ar
   124   107   108    2
   125   107   113   am
   126   141   142   ar
   127   141   143   ar
   128   119   113    1
   129   119   118    1
   130    85    86   ar
   131    59    60    1
   132   185   187   ar
   133   185   183   ar
   134   113   114    1
   135   187   186   ar
   136    84    86   ar
   137   152   149    1
   138   152   153    1
   139   149   150    1
   140   118   117    1
   141   183   182    1
   142   183   184   ar
   143   182   179    1
   144    60    61    1
   145    61    62    1
   146   186   184   ar
   147   151   150    2
   148   114   117    1
   149   114   115    1
   150   150   156   am
   151   116   115    2
   152   180   179    1
   153   180   181    2
   154   153   155   am
   155   153   154    2
   156   162   160    1
   157   179   178    1
   158    64    63    1
   159   156   157    1
   160    62    63    2
   161    63    65    1
   162   160   161    1
   163   160   157    1
   164   157   158    1
   165   127   126    1
   166   127   128    1
   167   122   123    2
   168   122   121    1
   169   125   126    1
   170   125   124    1
   171   120   121    1
   172   159   158    2
   173   158   163   am
   174   173   172    2
   175   121   124    1
   176   172   171    1
   177   163   169    1
   178   163   164    1
   179   177   175   ar
   180   174   171    1
   181   174   175    1
   182   169   168    1
   183   171   170    1
   184   170   165   am
   185   175   176   ar
   186   164   165    1
   187   164   167    1
   188   165   166    2
   189   168   167    1
