@<TRIPOS>MOLECULE
tmp/2q2rA00.pdb
 124 119 0 0 0
SMALL
GASTEIGER

@<TRIPOS>ATOM
      1  N         92.8130   30.8100   25.9710 N.3    98  PRO98      -0.2102
      2  CA        93.6980   29.6380   25.9270 C.3    98  PRO98       0.1504
      3  C         93.8060   29.0040   24.5470 C.2    98  PRO98       0.2576
      4  O         93.6460   27.7960   24.4040 O.2    98  PRO98      -0.2718
      5  CB        93.0300   28.6780   26.9040 C.3    98  PRO98       0.0282
      6  CG        91.5620   28.9280   26.6860 C.3    98  PRO98       0.0208
      7  CD        91.4740   30.4720   26.4920 C.3    98  PRO98       0.0893
      8  N         94.0710   29.8050   23.5260 N.am   99  GLY99      -0.1943
      9  CA        94.2310   29.2420   22.1780 C.3    99  GLY99       0.1998
     10  C         95.0110   30.1660   21.2710 C.2    99  GLY99       0.2480
     11  O         95.3470   31.2850   21.6650 O.2    99  GLY99      -0.2729
     12  N         95.3040   29.7140   20.0450 N.am  100  PRO100     -0.2726
     13  CA        96.0770   30.5310   19.1180 C.3   100  PRO100      0.1402
     14  C         95.3010   31.7700   18.6910 C.2   100  PRO100      0.2269
     15  O         94.1390   31.6660   18.3130 O.2   100  PRO100     -0.2865
     16  CB        96.2800   29.6170   17.9000 C.3   100  PRO100      0.0296
     17  CG        95.8430   28.2740   18.3000 C.3   100  PRO100      0.0237
     18  CD        94.9410   28.4080   19.4770 C.3   100  PRO100      0.0939
     19  N         89.7830   26.3250   20.1150 N.3   110  PHE110     -0.1227
     20  CA        90.2850   25.8720   21.4100 C.3   110  PHE110      0.1736
     21  C         90.0560   24.3640   21.5780 C.2   110  PHE110      0.2595
     22  O         89.0830   23.8290   21.0650 O.2   110  PHE110     -0.2718
     23  CB        89.5770   26.6530   22.5120 C.3   110  PHE110      0.0547
     24  CG        89.6070   28.1380   22.2980 C.ar  110  PHE110     -0.0202
     25  CD1       88.6460   28.7570   21.5150 C.ar  110  PHE110     -0.0042
     26  CD2       90.6070   28.9100   22.8560 C.ar  110  PHE110     -0.0042
     27  CE1       88.6780   30.1320   21.2990 C.ar  110  PHE110     -0.0003
     28  CE2       90.6590   30.2680   22.6460 C.ar  110  PHE110     -0.0003
     29  CZ        89.6800   30.8880   21.8670 C.ar  110  PHE110     -0.0000
     30  N         90.9540   23.6830   22.2810 N.am  111  ASN111     -0.1974
     31  CA        90.7880   22.2510   22.5790 C.3   111  ASN111      0.1688
     32  C         89.5430   21.9550   23.4130 C.2   111  ASN111      0.2292
     33  O         88.8060   20.9890   23.1370 O.2   111  ASN111     -0.2864
     34  CB        92.0340   21.6920   23.2710 C.3   111  ASN111      0.1181
     35  CG        93.0830   21.1880   22.2710 C.2   111  ASN111      0.2629
     36  OD1       93.0040   20.0410   21.7980 O.2   111  ASN111     -0.2716
     37  ND2       94.0660   22.0410   21.9380 N.am  111  ASN111     -0.0877
     38  N         96.9790   35.5470   23.3280 N.3   136  ASN136     -0.1225
     39  CA        96.9630   34.1430   23.7340 C.3   136  ASN136      0.1785
     40  C         97.4230   34.1480   25.2030 C.2   136  ASN136      0.2597
     41  O         98.0720   35.0990   25.6390 O.2   136  ASN136     -0.2718
     42  CB        97.9040   33.3480   22.8370 C.3   136  ASN136      0.1169
     43  CG        98.2580   31.9900   23.4120 C.2   136  ASN136      0.2627
     44  OD1       97.4960   31.0390   23.2980 O.2   136  ASN136     -0.2716
     45  ND2       99.4130   31.9030   24.0340 N.am  136  ASN136     -0.0877
     46  N         97.0730   33.1220   25.9700 N.am  137  ASP137     -0.1960
     47  CA        97.3800   33.1230   27.3970 C.3   137  ASP137      0.1840
     48  C         98.8690   33.2450   27.7270 C.2   137  ASP137      0.2621
     49  O         99.2410   34.1060   28.5240 O.2   137  ASP137     -0.2715
     50  CB        96.6790   32.0020   28.1840 C.3   137  ASP137      0.1450
     51  CG        96.9050   30.6060   27.6000 C.2   137  ASP137      0.3671
     52  OD1       97.4920   30.4890   26.5070 O.co2 137  ASP137     -0.2456
     53  OD2       96.4730   29.6140   28.2460 O.co2 137  ASP137     -0.2456
     54  N         99.7110   32.4150   27.1080 N.am  138  LEU138     -0.1977
     55  CA       101.1580   32.5170   27.3030 C.3   138  LEU138      0.1596
     56  C        101.7970   33.7330   26.6740 C.2   138  LEU138      0.2287
     57  O        102.9320   34.0660   27.0200 O.2   138  LEU138     -0.2864
     58  CB       101.8990   31.2680   26.8310 C.3   138  LEU138      0.0297
     59  CG       101.9930   30.2180   27.9440 C.3   138  LEU138      0.0022
     60  CD1      102.9610   30.6520   29.0540 C.3   138  LEU138      0.0001
     61  CD2      100.6020   30.0260   28.5350 C.3   138  LEU138      0.0001
     62  N        103.9580   26.8780   30.4940 N.3   188  ALA188     -0.1245
     63  CA       102.9610   26.7430   31.5610 C.3   188  ALA188      0.1562
     64  C        102.1690   25.4390   31.4240 C.2   188  ALA188      0.2260
     65  O        101.2950   25.3610   30.5740 O.2   188  ALA188     -0.2867
     66  CB       102.0050   27.9390   31.5120 C.3   188  ALA188      0.0290
     67  N         96.0590   22.6240   29.6460 N.3   192  GLY192     -0.1210
     68  CA        96.8810   22.4070   28.4650 C.3   192  GLY192      0.1956
     69  C         98.3410   22.7210   28.7520 C.2   192  GLY192      0.2612
     70  O         98.7240   22.9970   29.8720 O.2   192  GLY192     -0.2717
     71  N         99.1740   22.6930   27.7260 N.am  193  LEU193     -0.1965
     72  CA       100.5580   23.1030   27.8930 C.3   193  LEU193      0.1728
     73  C        100.7960   24.3360   27.0500 C.2   193  LEU193      0.2617
     74  O        100.8370   24.2370   25.8360 O.2   193  LEU193     -0.2715
     75  CB       101.4910   21.9650   27.4680 C.3   193  LEU193      0.0311
     76  CG       102.9880   22.2490   27.3590 C.3   193  LEU193      0.0022
     77  CD1      103.5610   22.7590   28.6880 C.3   193  LEU193      0.0001
     78  CD2      103.6990   20.9590   26.8980 C.3   193  LEU193      0.0001
     79  N        100.9370   25.5000   27.6940 N.am  194  GLY194     -0.1940
     80  CA       101.2720   26.7420   26.9880 C.3   194  GLY194      0.2014
     81  C        102.7670   26.9230   26.7860 C.2   194  GLY194      0.2639
     82  O        103.5850   26.3400   27.5160 O.2   194  GLY194     -0.2714
     83  N        103.1220   27.6920   25.7540 N.am  195  SER195     -0.1949
     84  CA       104.5110   28.0120   25.4210 C.3   195  SER195      0.1924
     85  C        104.5660   29.3430   24.6770 C.2   195  SER195      0.2314
     86  O        103.7650   29.5790   23.7960 O.2   195  SER195     -0.2863
     87  CB       105.0540   26.9630   24.4830 C.3   195  SER195      0.2116
     88  OG       104.1600   26.8300   23.4020 O.3   195  SER195     -0.2180
     89  N        103.5770   30.5740   20.7330 N.3   209  LEU209     -0.1231
     90  CA       103.8860   29.3040   20.0900 C.3   209  LEU209      0.1693
     91  C        102.8940   28.2410   20.5190 C.2   209  LEU209      0.2591
     92  O        102.1340   28.4350   21.4650 O.2   209  LEU209     -0.2718
     93  CB       105.2860   28.8490   20.4700 C.3   209  LEU209      0.0284
     94  CG       106.4750   29.7780   20.2100 C.3   209  LEU209      0.0019
     95  CD1      107.6420   29.3390   21.0420 C.3   209  LEU209      0.0001
     96  CD2      106.8430   29.7500   18.7690 C.3   209  LEU209      0.0001
     97  N        102.9200   27.0980   19.8390 N.am  210  GLU210     -0.1979
     98  CA       102.0440   26.0020   20.1900 C.3   210  GLU210      0.1602
     99  C        102.8380   24.7240   20.1960 C.2   210  GLU210      0.2287
    100  O        102.5130   23.8250   19.4590 O.2   210  GLU210     -0.2864
    101  CB       100.9390   25.8560   19.1330 C.3   210  GLU210      0.0415
    102  CG        99.9030   26.9690   19.0700 C.3   210  GLU210      0.1163
    103  CD        99.0090   27.0290   20.2840 C.2   210  GLU210      0.3649
    104  OE1       98.6830   25.9430   20.8340 O.co2 210  GLU210     -0.2457
    105  OE2       98.6300   28.1650   20.6990 O.co2 210  GLU210     -0.2457
    106  N        103.0450   22.5130   22.4110 N.3   212  GLY212     -0.1210
    107  CA       102.3220   21.4250   23.0420 C.3   212  GLY212      0.1956
    108  C        101.6160   20.5380   22.0440 C.2   212  GLY212      0.2612
    109  O        101.5260   19.3200   22.2220 O.2   212  GLY212     -0.2717
    110  N        101.1410   21.1420   20.9640 N.am  213  SER213     -0.1952
    111  CA       100.3870   20.4170   19.9580 C.3   213  SER213      0.1924
    112  C        101.2070   19.6870   18.8860 C.2   213  SER213      0.2314
    113  O        100.6300   19.0480   18.0020 O.2   213  SER213     -0.2863
    114  CB        99.3740   21.3540   19.3240 C.3   213  SER213      0.2116
    115  OG        98.4540   21.7550   20.3150 O.3   213  SER213     -0.2180
    116  N        101.3480   17.8240   24.8600 N.3   239  GLU239     -0.1245
    117  CA       100.3150   18.1600   25.8240 C.3   239  GLU239      0.1567
    118  C         99.6270   16.9060   26.3440 C.2   239  GLU239      0.2260
    119  O         99.2780   16.8350   27.5150 O.2   239  GLU239     -0.2867
    120  CB        99.2740   19.0610   25.1860 C.3   239  GLU239      0.0388
    121  CG        98.2840   19.6830   26.1400 C.3   239  GLU239      0.1160
    122  CD        97.4510   20.7240   25.4450 C.2   239  GLU239      0.3649
    123  OE1       97.7040   21.9460   25.6170 O.co2 239  GLU239     -0.2457
    124  OE2       96.5430   20.3430   24.6910 O.co2 239  GLU239     -0.2457
@<TRIPOS>BOND
     1    16    17    1
     2    16    13    1
     3   113   112    2
     4    17    18    1
     5    15    14    2
     6    14    13    1
     7    96    94    1
     8   112   111    1
     9   102   101    1
    10   102   103    1
    11    13    12    1
    12   101    98    1
    13   114   111    1
    14   114   115    1
    15   100    99    2
    16    18    12    1
    17    97    98    1
    18    97    91   am
    19   111   110    1
    20    12    10   am
    21    90    93    1
    22    90    91    1
    23    90    89    1
    24    19    20    1
    25    98    99    1
    26    94    93    1
    27    94    95    1
    28   103   105   ar
    29   103   104   ar
    30    91    92    2
    31   110   108   am
    32    22    21    2
    33    10    11    2
    34    10     9    1
    35    27    25   ar
    36    27    29   ar
    37    20    21    1
    38    20    23    1
    39    25    24   ar
    40    21    30   am
    41    36    35    2
    42    29    28   ar
    43    37    35   am
    44   108   109    2
    45   108   107    1
    46     9     8    1
    47    35    34    1
    48    30    31    1
    49    24    23    1
    50    24    26   ar
    51   106   107    1
    52    31    34    1
    53    31    32    1
    54    28    26   ar
    55    42    43    1
    56    42    39    1
    57    33    32    2
    58    44    43    2
    59    38    39    1
    60    88    87    1
    61    43    45   am
    62     8     3   am
    63    39    40    1
    64    86    85    2
    65     4     3    2
    66    87    84    1
    67     3     2    1
    68    85    84    1
    69   124   122   ar
    70   116   117    1
    71   120   117    1
    72   120   121    1
    73    40    41    2
    74    40    46   am
    75    84    83    1
    76   122   123   ar
    77   122   121    1
    78    83    81   am
    79   117   118    1
    80    74    73    2
    81     2     1    1
    82     2     5    1
    83    46    47    1
    84     1     7    1
    85   118   119    2
    86     7     6    1
    87    52    51   ar
    88    56    57    2
    89    56    55    1
    90     6     5    1
    91    81    80    1
    92    81    82    2
    93    58    55    1
    94    58    59    1
    95    78    76    1
    96    80    79    1
    97    73    79   am
    98    73    72    1
    99    54    55    1
   100    54    48   am
   101    76    75    1
   102    76    77    1
   103    47    48    1
   104    47    50    1
   105    75    72    1
   106    51    50    1
   107    51    53   ar
   108    71    72    1
   109    71    69   am
   110    48    49    2
   111    59    61    1
   112    59    60    1
   113    68    69    1
   114    68    67    1
   115    69    70    2
   116    62    63    1
   117    65    64    2
   118    64    63    1
   119    66    63    1
