@<TRIPOS>MOLECULE
tmp/2q2rA01.pdb
 143 134 0 0 0
SMALL
GASTEIGER

@<TRIPOS>ATOM
      1  N         90.3110   31.5640   30.9870 N.3    37  GLY37      -0.1210
      2  CA        90.8360   30.2010   30.8550 C.3    37  GLY37       0.1956
      3  C         89.7350   29.2090   30.5030 C.2    37  GLY37       0.2612
      4  O         88.5860   29.5780   30.3340 O.2    37  GLY37      -0.2717
      5  N         90.0680   27.9320   30.3970 N.am   38  GLY38      -0.1942
      6  CA        89.0400   26.9460   30.0700 C.3    38  GLY38       0.2014
      7  C         87.8970   26.8480   31.0710 C.2    38  GLY38       0.2639
      8  O         86.7250   26.7240   30.6920 O.2    38  GLY38      -0.2714
      9  N         88.2300   26.9020   32.3540 N.am   39  THR39      -0.1950
     10  CA        87.2440   26.6700   33.4010 C.3    39  THR39       0.1897
     11  C         86.7300   27.9400   34.0830 C.2    39  THR39       0.2313
     12  O         85.5780   27.9910   34.4910 O.2    39  THR39      -0.2863
     13  CB        87.7630   25.6810   34.4380 C.3    39  THR39       0.1794
     14  OG1       88.9110   26.2380   35.0850 O.3    39  THR39      -0.2208
     15  CG2       88.1750   24.3780   33.7680 C.3    39  THR39       0.0378
     16  N         92.8130   30.8100   25.9710 N.3    98  PRO98      -0.2116
     17  CA        93.6980   29.6380   25.9270 C.3    98  PRO98       0.1372
     18  C         93.8060   29.0040   24.5470 C.2    98  PRO98       0.2244
     19  O         93.6460   27.7960   24.4040 O.2    98  PRO98      -0.2868
     20  CB        93.0300   28.6780   26.9040 C.3    98  PRO98       0.0268
     21  CG        91.5620   28.9280   26.6860 C.3    98  PRO98       0.0207
     22  CD        91.4740   30.4720   26.4920 C.3    98  PRO98       0.0892
     23  N         97.0730   33.1220   25.9700 N.3   137  ASP137     -0.1239
     24  CA        97.3800   33.1230   27.3970 C.3   137  ASP137      0.1674
     25  C         98.8690   33.2450   27.7270 C.2   137  ASP137      0.2266
     26  O         99.2410   34.1060   28.5240 O.2   137  ASP137     -0.2867
     27  CB        96.6790   32.0020   28.1840 C.3   137  ASP137      0.1410
     28  CG        96.9050   30.6060   27.6000 C.2   137  ASP137      0.3668
     29  OD1       97.4920   30.4890   26.5070 O.co2 137  ASP137     -0.2456
     30  OD2       96.4730   29.6140   28.2460 O.co2 137  ASP137     -0.2456
     31  N        102.4850   24.4000   32.2340 N.3   189  PRO189     -0.2102
     32  CA       101.6790   23.1720   32.2380 C.3   189  PRO189      0.1504
     33  C        100.4430   23.1750   33.1710 C.2   189  PRO189      0.2576
     34  O        100.5870   23.2210   34.3940 O.2   189  PRO189     -0.2718
     35  CB       102.6950   22.0880   32.6610 C.3   189  PRO189      0.0282
     36  CG       103.9040   22.8280   33.1580 C.3   189  PRO189      0.0208
     37  CD       103.6160   24.2900   33.1590 C.3   189  PRO189      0.0893
     38  N         99.2410   23.1230   32.5980 N.am  190  GLY190     -0.1943
     39  CA        98.0280   23.0260   33.4000 C.3   190  GLY190      0.2014
     40  C         97.0250   22.0980   32.7560 C.2   190  GLY190      0.2640
     41  O         97.3020   20.9010   32.5760 O.2   190  GLY190     -0.2714
     42  N         95.8640   22.6430   32.4000 N.am  191  THR191     -0.1936
     43  CA        94.8670   21.9190   31.6260 C.3   191  THR191      0.2028
     44  C         95.4490   21.6120   30.2560 C.2   191  THR191      0.2642
     45  O         95.3580   20.4840   29.7680 O.2   191  THR191     -0.2714
     46  CB        93.5920   22.7500   31.4420 C.3   191  THR191      0.1808
     47  OG1       92.9440   22.8830   32.7090 O.3   191  THR191     -0.2208
     48  CG2       92.6330   22.0660   30.4530 C.3   191  THR191      0.0379
     49  N         96.0590   22.6240   29.6460 N.am  192  GLY192     -0.1954
     50  CA        96.8810   22.4070   28.4650 C.3   192  GLY192      0.1869
     51  C         98.3410   22.7210   28.7520 C.2   192  GLY192      0.2309
     52  O         98.7240   22.9970   29.8720 O.2   192  GLY192     -0.2863
     53  N         96.7940   18.0820   32.7690 N.3   244  GLY244     -0.1225
     54  CA        95.9690   17.3830   33.7510 C.3   244  GLY244      0.1811
     55  C         95.6630   15.9580   33.3490 C.2   244  GLY244      0.2280
     56  O         95.9110   15.0350   34.1170 O.2   244  GLY244     -0.2866
     57  N         98.8350   13.8240   33.5450 N.3   247  LEU247     -0.1231
     58  CA        99.1790   13.3370   34.8850 C.3   247  LEU247      0.1693
     59  C         98.2670   12.1800   35.2960 C.2   247  LEU247      0.2591
     60  O         98.7270   11.1670   35.8400 O.2   247  LEU247     -0.2718
     61  CB        99.0750   14.4750   35.9160 C.3   247  LEU247      0.0284
     62  CG        99.7240   14.1030   37.2420 C.3   247  LEU247      0.0019
     63  CD1      101.2310   13.8690   37.1580 C.3   247  LEU247      0.0001
     64  CD2       99.3800   15.1060   38.2520 C.3   247  LEU247      0.0001
     65  N         96.9750   12.3230   35.0060 N.am  248  GLU248     -0.1979
     66  CA        95.9950   11.2750   35.3020 C.3   248  GLU248      0.1602
     67  C         96.3050    9.9560   34.5880 C.2   248  GLU248      0.2287
     68  O         96.1700    8.8660   35.1600 O.2   248  GLU248     -0.2864
     69  CB        94.5780   11.7700   34.9680 C.3   248  GLU248      0.0415
     70  CG        94.0760   12.8080   35.9500 C.3   248  GLU248      0.1163
     71  CD        93.0040   13.7040   35.3990 C.2   248  GLU248      0.3649
     72  OE1       92.3810   13.3160   34.3930 O.co2 248  GLU248     -0.2457
     73  OE2       92.7930   14.8250   35.9460 O.co2 248  GLU248     -0.2457
     74  N         94.1550   15.0430   38.5190 N.3   264  ALA264     -0.1231
     75  CA        95.4670   15.6650   38.5400 C.3   264  ALA264      0.1694
     76  C         95.7650   16.2520   39.8990 C.2   264  ALA264      0.2592
     77  O         96.8590   16.0860   40.4200 O.2   264  ALA264     -0.2718
     78  CB        95.5760   16.7160   37.4890 C.3   264  ALA264      0.0304
     79  N         94.7810   16.9410   40.4730 N.am  265  GLY265     -0.1957
     80  CA        94.9420   17.5620   41.7950 C.3   265  GLY265      0.1869
     81  C         95.2280   16.5840   42.9190 C.2   265  GLY265      0.2309
     82  O         96.1140   16.8140   43.7390 O.2   265  GLY265     -0.2863
     83  N         98.7660   15.0710   42.6610 N.3   268  ALA268     -0.1245
     84  CA        99.7900   15.9950   43.1160 C.3   268  ALA268      0.1562
     85  C         99.7420   16.1300   44.6350 C.2   268  ALA268      0.2260
     86  O        100.7900   16.1620   45.2980 O.2   268  ALA268     -0.2867
     87  CB        99.5830   17.3800   42.4560 C.3   268  ALA268      0.0290
     88  N        104.1400   11.6790   39.0440 N.3   282  MET282     -0.1245
     89  CA       104.7070   13.0300   38.8740 C.3   282  MET282      0.1570
     90  C        106.0660   13.0270   38.1500 C.2   282  MET282      0.2261
     91  O        106.3840   13.9560   37.4040 O.2   282  MET282     -0.2867
     92  CB       104.7840   13.7720   40.2150 C.3   282  MET282      0.0387
     93  CG       103.4350   14.1560   40.7650 C.3   282  MET282      0.0595
     94  SD       102.9280   15.8050   40.1910 S.3   282  MET282     -0.1393
     95  CE       103.9650   16.8410   41.2240 C.3   282  MET282      0.0692
     96  N        105.2730   12.6920   34.4700 N.3   285  TYR285     -0.1241
     97  CA       104.7770   13.9790   33.9830 C.3   285  TYR285      0.1605
     98  C        105.9650   14.8610   33.6980 C.2   285  TYR285      0.2264
     99  O        106.0820   15.4360   32.6430 O.2   285  TYR285     -0.2867
    100  CB       103.8920   14.6160   35.0430 C.3   285  TYR285      0.0534
    101  CG       103.3210   16.0140   34.7800 C.ar  285  TYR285     -0.0201
    102  CD1      102.0470   16.1800   34.2440 C.ar  285  TYR285     -0.0009
    103  CD2      104.0180   17.1470   35.1490 C.ar  285  TYR285     -0.0009
    104  CE1      101.4980   17.4340   34.0600 C.ar  285  TYR285      0.0417
    105  CE2      103.4760   18.4470   34.9490 C.ar  285  TYR285      0.0417
    106  CZ       102.2110   18.5680   34.4170 C.ar  285  TYR285      0.1957
    107  OH       101.6490   19.8060   34.2270 O.3   285  TYR285     -0.2866
    108  N        103.1180   29.3030   36.4210 N.3   309  GLY309     -0.1210
    109  CA       101.7330   28.9570   36.7330 C.3   309  GLY309      0.1956
    110  C        101.5350   28.4870   38.1670 C.2   309  GLY309      0.2612
    111  O        102.4980   28.1210   38.8600 O.2   309  GLY309     -0.2717
    112  N        100.2780   28.4750   38.6080 N.am  310  ASP310     -0.1959
    113  CA        99.9640   28.0830   39.9630 C.3   310  ASP310      0.1840
    114  C        100.4580   26.6700   40.2060 C.2   310  ASP310      0.2622
    115  O        101.0140   26.3860   41.2620 O.2   310  ASP310     -0.2715
    116  CB        98.4520   28.1780   40.2330 C.3   310  ASP310      0.1450
    117  CG        97.9720   29.6230   40.3680 C.2   310  ASP310      0.3671
    118  OD1       98.8020   30.5480   40.2270 O.co2 310  ASP310     -0.2456
    119  OD2       96.7700   29.8360   40.5980 O.co2 310  ASP310     -0.2456
    120  N        100.2580   25.7870   39.2330 N.am  311  ASN311     -0.1972
    121  CA       100.6990   24.3900   39.3610 C.3   311  ASN311      0.1688
    122  C        102.1970   24.2500   39.6280 C.2   311  ASN311      0.2292
    123  O        102.6430   23.2840   40.2900 O.2   311  ASN311     -0.2864
    124  CB       100.3390   23.5990   38.0990 C.3   311  ASN311      0.1181
    125  CG        98.8560   23.4060   37.9490 C.2   311  ASN311      0.2629
    126  OD1       98.1030   23.5250   38.9190 O.2   311  ASN311     -0.2716
    127  ND2       98.4150   23.1200   36.7300 N.am  311  ASN311     -0.0877
    128  N        102.7480   25.6550   43.2660 N.3   314  ASN314     -0.1225
    129  CA       102.2020   24.6450   44.1510 C.3   314  ASN314      0.1785
    130  C        102.9560   23.3310   44.1490 C.2   314  ASN314      0.2597
    131  O        103.0330   22.6680   45.1730 O.2   314  ASN314     -0.2718
    132  CB       100.7150   24.4540   43.9000 C.3   314  ASN314      0.1169
    133  CG        99.9150   25.7070   44.2330 C.2   314  ASN314      0.2627
    134  OD1      100.3240   26.5190   45.0830 O.2   314  ASN314     -0.2716
    135  ND2       98.7770   25.8770   43.5660 N.am  314  ASN314     -0.0877
    136  N        103.5640   22.9880   43.0220 N.am  315  ASN315     -0.1974
    137  CA       104.4430   21.8050   42.9460 C.3   315  ASN315      0.1688
    138  C        105.8630   22.0200   43.4330 C.2   315  ASN315      0.2292
    139  O        106.6940   21.1460   43.2640 O.2   315  ASN315     -0.2864
    140  CB       104.5000   21.2560   41.5190 C.3   315  ASN315      0.1181
    141  CG       103.1790   20.7110   41.0690 C.2   315  ASN315      0.2629
    142  OD1      102.3020   20.4460   41.8930 O.2   315  ASN315     -0.2716
    143  ND2      103.0060   20.5730   39.7540 N.am  315  ASN315     -0.0877
@<TRIPOS>BOND
     1    19    18    2
     2    18    17    1
     3    17    16    1
     4    17    20    1
     5    23    24    1
     6    16    22    1
     7    22    21    1
     8    29    28   ar
     9    21    20    1
    10    24    25    1
    11    24    27    1
    12    28    27    1
    13    28    30   ar
    14    25    26    2
    15    50    51    1
    16    50    49    1
    17    51    52    2
    18    49    44   am
    19    45    44    2
    20     6     5    1
    21     6     7    1
    22    44    43    1
    23     4     3    2
    24     5     3   am
    25    48    46    1
    26     3     2    1
    27     8     7    2
    28     2     1    1
    29     7     9   am
    30    46    43    1
    31    46    47    1
    32    43    42    1
    33    31    32    1
    34    31    37    1
    35    32    35    1
    36    32    33    1
    37     9    10    1
    38    42    40   am
    39    41    40    2
    40    38    33   am
    41    38    39    1
    42    99    98    2
    43    35    36    1
    44    40    39    1
    45    53    54    1
    46    36    37    1
    47    33    34    2
    48    55    54    1
    49    55    56    2
    50    10    11    1
    51    10    13    1
    52    57    58    1
    53    98    97    1
    54    15    13    1
    55    97    96    1
    56    97   100    1
    57   104   102   ar
    58   104   106   ar
    59    11    12    2
    60   107   106    1
    61   102   101   ar
    62    72    71   ar
    63   106   105   ar
    64    13    14    1
    65    67    68    2
    66    67    66    1
    67   101   100    1
    68   101   103   ar
    69    58    59    1
    70    58    61    1
    71   105   103   ar
    72    69    66    1
    73    69    70    1
    74    65    59   am
    75    65    66    1
    76    59    60    2
    77    71    73   ar
    78    71    70    1
    79    61    62    1
    80   108   109    1
    81   127   125   am
    82   109   110    1
    83    63    62    1
    84    62    64    1
    85    91    90    2
    86    78    75    1
    87   125   124    1
    88   125   126    2
    89   124   121    1
    90    90    89    1
    91   110   112   am
    92   110   111    2
    93    74    75    1
    94    75    76    1
    95   112   113    1
    96    89    88    1
    97    89    92    1
    98   120   121    1
    99   120   114   am
   100   121   122    1
   101   122   123    2
   102   143   141   am
   103    76    77    2
   104    76    79   am
   105   113   114    1
   106   113   116    1
   107    94    93    1
   108    94    95    1
   109   114   115    2
   110    92    93    1
   111   118   117   ar
   112   116   117    1
   113   117   119   ar
   114    79    80    1
   115   141   140    1
   116   141   142    2
   117   140   137    1
   118    80    81    1
   119    87    84    1
   120    83    84    1
   121    81    82    2
   122   137   136    1
   123   137   138    1
   124   136   130   am
   125    84    85    1
   126   139   138    2
   127   128   129    1
   128   135   133   am
   129   132   129    1
   130   132   133    1
   131   130   129    1
   132   130   131    2
   133   133   134    2
   134    85    86    2
