@<TRIPOS>MOLECULE
tmp/2q2tD00.pdb
 201 189 0 0 0
SMALL
GASTEIGER

@<TRIPOS>ATOM
      1  N        -61.2080    0.4420   66.9250 N.3     7  LEU7       -0.1231
      2  CA       -60.0930   -0.2070   66.2590 C.3     7  LEU7        0.1693
      3  C        -60.6630   -0.8990   65.0060 C.2     7  LEU7        0.2592
      4  O        -61.6210   -1.6690   65.1080 O.2     7  LEU7       -0.2718
      5  CB       -59.4810   -1.2550   67.1960 C.3     7  LEU7        0.0284
      6  CG       -58.0990   -1.8670   66.9200 C.3     7  LEU7        0.0019
      7  CD1      -58.1430   -3.3720   67.1880 C.3     7  LEU7        0.0001
      8  CD2      -57.6590   -1.6030   65.4930 C.3     7  LEU7        0.0001
      9  N        -60.0970   -0.6000   63.8350 N.am    8  LEU8       -0.1966
     10  CA       -60.5350   -1.2180   62.5810 C.3     8  LEU8        0.1728
     11  C        -59.4490   -2.1720   62.0650 C.2     8  LEU8        0.2616
     12  O        -58.2630   -2.0120   62.3790 O.2     8  LEU8       -0.2715
     13  CB       -60.8410   -0.1460   61.5360 C.3     8  LEU8        0.0311
     14  CG       -61.7280    0.9860   62.0840 C.3     8  LEU8        0.0022
     15  CD1      -62.0630    1.9900   60.9650 C.3     8  LEU8        0.0001
     16  CD2      -63.0020    0.4000   62.6690 C.3     8  LEU8        0.0001
     17  N        -59.8610   -3.1460   61.2550 N.am    9  ALA9       -0.1977
     18  CA       -58.9670   -4.1690   60.7180 C.3     9  ALA9        0.1597
     19  C        -58.3540   -3.9120   59.3450 C.2     9  ALA9        0.2287
     20  O        -58.9460   -3.2650   58.4870 O.2     9  ALA9       -0.2864
     21  CB       -59.7120   -5.5040   60.6880 C.3     9  ALA9        0.0319
     22  N        -59.2930  -15.2020   66.5390 N.3    25  THR25      -0.1204
     23  CA       -60.6690  -15.3450   66.9680 C.3    25  THR25       0.1979
     24  C        -61.5030  -15.4100   65.6990 C.2    25  THR25       0.2460
     25  O        -61.0570  -14.9810   64.6220 O.2    25  THR25      -0.2732
     26  CB       -61.1420  -14.1170   67.7880 C.3    25  THR25       0.1783
     27  OG1      -60.7820  -12.9130   67.0930 O.3    25  THR25      -0.2211
     28  CG2      -60.5110  -14.1180   69.1930 C.3    25  THR25       0.0376
     29  N        -62.7230  -15.9510   65.8020 N.am   26  PRO26      -0.2717
     30  CA       -63.6010  -16.0470   64.6350 C.3    26  PRO26       0.1535
     31  C        -64.1850  -14.6700   64.3030 C.2    26  PRO26       0.2598
     32  O        -64.4970  -13.8900   65.2070 O.2    26  PRO26      -0.2715
     33  CB       -64.6660  -17.0440   65.0850 C.3    26  PRO26       0.0310
     34  CG       -64.7310  -16.8110   66.5640 C.3    26  PRO26       0.0237
     35  CD       -63.2950  -16.6600   66.9600 C.3    26  PRO26       0.0939
     36  N        -64.3170  -14.3730   63.0110 N.am   27  LYS27      -0.1964
     37  CA       -64.8530  -13.0930   62.5620 C.3    27  LYS27       0.1728
     38  C        -66.3710  -13.1320   62.5870 C.2    27  LYS27       0.2616
     39  O        -66.9830  -14.0230   62.0030 O.2    27  LYS27      -0.2715
     40  CB       -64.3670  -12.7890   61.1510 C.3    27  LYS27       0.0311
     41  CG       -64.8620  -11.4720   60.5800 C.3    27  LYS27       0.0038
     42  CD       -64.3710  -11.3440   59.1460 C.3    27  LYS27       0.0206
     43  CE       -64.1240   -9.9170   58.7480 C.3    27  LYS27       0.1093
     44  NZ       -65.4130   -9.2500   58.4040 N.3    27  LYS27      -0.1314
     45  N        -66.9850  -12.1770   63.2760 N.am   28  ILE28      -0.1963
     46  CA       -68.4400  -12.1490   63.3520 C.3    28  ILE28       0.1727
     47  C        -69.0390  -11.2100   62.3180 C.2    28  ILE28       0.2616
     48  O        -68.6240  -10.0570   62.1950 O.2    28  ILE28      -0.2715
     49  CB       -68.9360  -11.7120   64.7510 C.3    28  ILE28       0.0290
     50  CG1      -68.6920  -12.8230   65.7790 C.3    28  ILE28       0.0022
     51  CG2      -70.4320  -11.4530   64.7080 C.3    28  ILE28       0.0023
     52  CD1      -67.2650  -13.0730   66.0880 C.3    28  ILE28       0.0001
     53  N        -70.0190  -11.7110   61.5780 N.am   29  ASP29      -0.1957
     54  CA       -70.6890  -10.9180   60.5580 C.3    29  ASP29       0.1840
     55  C        -71.8780  -10.2330   61.2050 C.2    29  ASP29       0.2622
     56  O        -73.0160  -10.7170   61.1310 O.2    29  ASP29      -0.2715
     57  CB       -71.1510  -11.8180   59.4000 C.3    29  ASP29       0.1450
     58  CG       -71.7150  -11.0300   58.2210 C.2    29  ASP29       0.3671
     59  OD1      -71.4050   -9.8220   58.0970 O.co2  29  ASP29      -0.2456
     60  OD2      -72.4610  -11.6260   57.4120 O.co2  29  ASP29      -0.2456
     61  N        -71.6090   -9.1070   61.8570 N.am   30  GLY30      -0.1954
     62  CA       -72.6790   -8.3800   62.5140 C.3    30  GLY30       0.1869
     63  C        -72.5100   -6.8720   62.4770 C.2    30  GLY30       0.2309
     64  O        -72.0050   -6.3230   61.4980 O.2    30  GLY30      -0.2863
     65  N        -70.9780   -3.6090   64.6720 N.3    32  ARG32      -0.1245
     66  CA       -70.0670   -3.1650   65.7150 C.3    32  ARG32       0.1563
     67  C        -70.7780   -2.3410   66.7910 C.2    32  ARG32       0.2260
     68  O        -71.7350   -1.6150   66.5070 O.2    32  ARG32      -0.2867
     69  CB       -68.9590   -2.3270   65.0780 C.3    32  ARG32       0.0307
     70  CG       -67.7970   -1.9590   65.9880 C.3    32  ARG32       0.0489
     71  CD       -66.9720   -3.1710   66.3620 C.3    32  ARG32       0.2205
     72  NE       -65.7720   -2.8170   67.1210 N.pl3  32  ARG32      -0.0865
     73  CZ       -64.6910   -2.2440   66.6020 C.cat  32  ARG32       0.5346
     74  NH1      -64.6380   -1.9480   65.3060 N.pl3  32  ARG32       0.1354
     75  NH2      -63.6560   -1.9770   67.3810 N.pl3  32  ARG32       0.1354
     76  N        -70.2740    1.8870   65.1740 N.3    42  ARG42      -0.1245
     77  CA       -68.9070    2.1060   64.7220 C.3    42  ARG42       0.1563
     78  C        -68.5920    3.5750   64.4890 C.2    42  ARG42       0.2260
     79  O        -67.4340    3.9760   64.5690 O.2    42  ARG42      -0.2867
     80  CB       -68.6390    1.3320   63.4280 C.3    42  ARG42       0.0307
     81  CG       -67.1600    1.2720   63.0370 C.3    42  ARG42       0.0489
     82  CD       -66.9840    0.8160   61.5980 C.3    42  ARG42       0.2205
     83  NE       -67.5370    1.7900   60.6590 N.pl3  42  ARG42      -0.0865
     84  CZ       -66.8240    2.7210   60.0240 C.cat  42  ARG42       0.5346
     85  NH1      -65.5130    2.8090   60.2200 N.pl3  42  ARG42       0.1354
     86  NH2      -67.4260    3.5690   59.1900 N.pl3  42  ARG42       0.1354
     87  N        -69.4770   -7.1300   68.7620 N.3    67  GLU67      -0.1245
     88  CA       -70.3930   -7.1010   67.6450 C.3    67  GLU67       0.1567
     89  C        -71.7080   -7.7430   68.0200 C.2    67  GLU67       0.2260
     90  O        -71.7410   -8.7870   68.6810 O.2    67  GLU67      -0.2867
     91  CB       -69.7750   -7.8250   66.4460 C.3    67  GLU67       0.0388
     92  CG       -68.7910   -6.9700   65.6550 C.3    67  GLU67       0.1160
     93  CD       -69.2970   -6.7070   64.2640 C.2    67  GLU67       0.3649
     94  OE1      -68.7050   -5.8990   63.5220 O.co2  67  GLU67      -0.2457
     95  OE2      -70.3090   -7.3280   63.9060 O.co2  67  GLU67      -0.2457
     96  N        -65.2380   -8.9570   72.1100 N.3    98  PHE98      -0.1241
     97  CA       -63.8710   -9.2870   71.7320 C.3    98  PHE98       0.1605
     98  C        -62.7610   -8.3660   72.2040 C.2    98  PHE98       0.2264
     99  O        -61.5800   -8.6370   71.9610 O.2    98  PHE98      -0.2867
    100  CB       -63.7790   -9.4720   70.2140 C.3    98  PHE98       0.0534
    101  CG       -64.3270   -8.3300   69.4190 C.ar   98  PHE98      -0.0203
    102  CD1      -63.7990   -7.0510   69.5590 C.ar   98  PHE98      -0.0042
    103  CD2      -65.3380   -8.5450   68.4890 C.ar   98  PHE98      -0.0042
    104  CE1      -64.2630   -5.9900   68.7770 C.ar   98  PHE98      -0.0003
    105  CE2      -65.8200   -7.5010   67.6970 C.ar   98  PHE98      -0.0003
    106  CZ       -65.2780   -6.2150   67.8390 C.ar   98  PHE98      -0.0000
    107  N        -64.9230  -13.5720   73.2970 N.3   137  LEU137     -0.1245
    108  CA       -64.0270  -14.1510   72.2990 C.3   137  LEU137      0.1561
    109  C        -62.5930  -14.1460   72.7960 C.2   137  LEU137      0.2260
    110  O        -61.8710  -13.1590   72.6520 O.2   137  LEU137     -0.2867
    111  CB       -64.1110  -13.4000   70.9630 C.3   137  LEU137      0.0270
    112  CG       -65.3960  -13.5570   70.1420 C.3   137  LEU137      0.0019
    113  CD1      -65.2230  -12.8930   68.7770 C.3   137  LEU137      0.0001
    114  CD2      -65.7210  -15.0250   69.9650 C.3   137  LEU137      0.0001
    115  N        -67.8870  -15.8800   59.7420 N.3   161  GLU161     -0.1245
    116  CA       -67.5630  -15.1620   58.5180 C.3   161  GLU161      0.1567
    117  C        -66.1080  -15.3080   58.0760 C.2   161  GLU161      0.2260
    118  O        -65.8020  -15.1760   56.8920 O.2   161  GLU161     -0.2867
    119  CB       -67.9280  -13.6860   58.6940 C.3   161  GLU161      0.0388
    120  CG       -67.5790  -12.7950   57.5260 C.3   161  GLU161      0.1160
    121  CD       -68.1400  -11.3830   57.6750 C.2   161  GLU161      0.3649
    122  OE1      -67.8240  -10.7030   58.6800 O.co2 161  GLU161     -0.2457
    123  OE2      -68.9050  -10.9590   56.7820 O.co2 161  GLU161     -0.2457
    124  N        -60.1460  -13.4320   62.5210 N.3   164  MET164     -0.1245
    125  CA       -59.4700  -12.1770   62.7970 C.3   164  MET164      0.1570
    126  C        -58.1670  -12.5320   63.5040 C.2   164  MET164      0.2261
    127  O        -58.1300  -13.4150   64.3630 O.2   164  MET164     -0.2867
    128  CB       -60.3460  -11.2800   63.6700 C.3   164  MET164      0.0387
    129  CG       -61.6760  -10.8850   63.0380 C.3   164  MET164      0.0595
    130  SD       -61.4870   -9.8450   61.5640 S.3   164  MET164     -0.1393
    131  CE       -61.0840   -8.2800   62.2750 C.3   164  MET164      0.0692
    132  N        -54.6530  -11.1870   65.6100 N.3   166  ARG166     -0.1245
    133  CA       -54.0950  -10.1010   66.4010 C.3   166  ARG166      0.1563
    134  C        -52.6660  -10.3220   66.8190 C.2   166  ARG166      0.2260
    135  O        -52.2540  -11.4460   67.0770 O.2   166  ARG166     -0.2867
    136  CB       -54.9150   -9.8930   67.6680 C.3   166  ARG166      0.0307
    137  CG       -56.3590   -9.5580   67.4500 C.3   166  ARG166      0.0489
    138  CD       -56.7120   -8.3500   68.2930 C.3   166  ARG166      0.2205
    139  NE       -58.1500   -8.1650   68.4420 N.pl3 166  ARG166     -0.0865
    140  CZ       -58.6970   -7.0690   68.9570 C.cat 166  ARG166      0.5346
    141  NH1      -57.9160   -6.0730   69.3580 N.pl3 166  ARG166      0.1354
    142  NH2      -60.0140   -6.9770   69.0800 N.pl3 166  ARG166      0.1354
    143  N        -57.7190    2.5890   62.1070 N.3   176  ARG176     -0.1245
    144  CA       -57.5120    1.3530   61.3760 C.3   176  ARG176      0.1563
    145  C        -56.0810    0.8490   61.3870 C.2   176  ARG176      0.2260
    146  O        -55.1300    1.5730   61.0820 O.2   176  ARG176     -0.2867
    147  CB       -57.9940    1.5370   59.9410 C.3   176  ARG176      0.0307
    148  CG       -57.5850    0.4540   58.9640 C.3   176  ARG176      0.0489
    149  CD       -58.4820    0.5180   57.7350 C.3   176  ARG176      0.2205
    150  NE       -59.4780   -0.5420   57.7850 N.pl3 176  ARG176     -0.0865
    151  CZ       -60.7940   -0.3760   57.6950 C.cat 176  ARG176      0.5346
    152  NH1      -61.3200    0.8300   57.5460 N.pl3 176  ARG176      0.1354
    153  NH2      -61.5850   -1.4400   57.7500 N.pl3 176  ARG176      0.1354
    154  N        -54.4910   -5.7610   63.9390 N.3   184  LEU184     -0.1245
    155  CA       -55.7800   -6.3940   63.6960 C.3   184  LEU184      0.1561
    156  C        -55.8890   -6.6640   62.2100 C.2   184  LEU184      0.2260
    157  O        -55.8920   -5.7340   61.4060 O.2   184  LEU184     -0.2867
    158  CB       -56.9230   -5.4660   64.1100 C.3   184  LEU184      0.0270
    159  CG       -58.2600   -6.0710   64.5500 C.3   184  LEU184      0.0019
    160  CD1      -59.3760   -5.1830   64.0550 C.3   184  LEU184      0.0001
    161  CD2      -58.4340   -7.4770   64.0370 C.3   184  LEU184      0.0001
    162  N        -58.0190   -8.9560   59.1190 N.3   186  LYS186     -0.1245
    163  CA       -59.2250   -9.7230   58.8330 C.3   186  LYS186      0.1561
    164  C        -58.8260  -10.7140   57.7430 C.2   186  LYS186      0.2260
    165  O        -57.9560  -10.4250   56.9210 O.2   186  LYS186     -0.2867
    166  CB       -60.3700   -8.8080   58.3550 C.3   186  LYS186      0.0271
    167  CG       -60.0530   -8.0320   57.0840 C.3   186  LYS186      0.0035
    168  CD       -61.2540   -7.2490   56.5570 C.3   186  LYS186      0.0206
    169  CE       -61.5660   -6.0070   57.3880 C.3   186  LYS186      0.1093
    170  NZ       -62.7420   -5.2670   56.8250 N.3   186  LYS186     -0.1314
    171  N        -60.8340  -13.0240   55.0400 N.3   188  LYS188     -0.1245
    172  CA       -62.0790  -13.4640   54.4260 C.3   188  LYS188      0.1561
    173  C        -61.8160  -14.1010   53.0820 C.2   188  LYS188      0.2260
    174  O        -60.9420  -13.6580   52.3300 O.2   188  LYS188     -0.2867
    175  CB       -63.0200  -12.2780   54.2250 C.3   188  LYS188      0.0271
    176  CG       -63.3390  -11.5500   55.4810 C.3   188  LYS188      0.0035
    177  CD       -63.7900  -10.1400   55.1990 C.3   188  LYS188      0.0206
    178  CE       -65.1540  -10.0900   54.5860 C.3   188  LYS188      0.1093
    179  NZ       -65.6080   -8.6730   54.5850 N.3   188  LYS188     -0.1314
    180  N        -72.3730   -9.8280   47.2680 N.3   285  ARG285     -0.1231
    181  CA       -72.0530   -8.8840   48.3330 C.3   285  ARG285      0.1694
    182  C        -70.5880   -8.4670   48.1440 C.2   285  ARG285      0.2592
    183  O        -69.7430   -9.3080   47.8220 O.2   285  ARG285     -0.2718
    184  CB       -72.2150   -9.5590   49.7010 C.3   285  ARG285      0.0321
    185  CG       -73.0000   -8.7330   50.7050 C.3   285  ARG285      0.0489
    186  CD       -72.2410   -8.4150   51.9950 C.3   285  ARG285      0.2205
    187  NE       -72.1490   -9.5650   52.8860 N.pl3 285  ARG285     -0.0865
    188  CZ       -72.0760   -9.4960   54.2170 C.cat 285  ARG285      0.5346
    189  NH1      -72.0930   -8.3230   54.8400 N.pl3 285  ARG285      0.1354
    190  NH2      -71.9700  -10.6130   54.9310 N.pl3 285  ARG285      0.1354
    191  N        -70.2920   -7.1800   48.3360 N.am  286  PHE286     -0.1976
    192  CA       -68.9190   -6.6700   48.1930 C.3   286  PHE286      0.1639
    193  C        -68.2950   -6.9320   46.8030 C.2   286  PHE286      0.2290
    194  O        -67.1410   -7.3470   46.6900 O.2   286  PHE286     -0.2864
    195  CB       -68.0170   -7.2990   49.2640 C.3   286  PHE286      0.0560
    196  CG       -68.5020   -7.0960   50.6760 C.ar  286  PHE286     -0.0200
    197  CD1      -68.1820   -8.0180   51.6690 C.ar  286  PHE286     -0.0042
    198  CD2      -69.2820   -5.9950   51.0180 C.ar  286  PHE286     -0.0042
    199  CE1      -68.6390   -7.8470   52.9870 C.ar  286  PHE286     -0.0003
    200  CE2      -69.7390   -5.8170   52.3230 C.ar  286  PHE286     -0.0003
    201  CZ       -69.4190   -6.7440   53.3090 C.ar  286  PHE286     -0.0000
@<TRIPOS>BOND
     1   194   193    2
     2   193   192    1
     3   180   181    1
     4   183   182    2
     5   182   181    1
     6   182   191   am
     7   192   191    1
     8   192   195    1
     9   181   184    1
    10   195   196    1
    11   184   185    1
    12   196   198   ar
    13   196   197   ar
    14   185   186    1
    15   198   200   ar
    16   197   199   ar
    17   186   187    1
    18   200   201   ar
    19   174   173    2
    20   187   188    2
    21   199   201   ar
    22   173   172    1
    23   188   189    1
    24   188   190    1
    25   175   172    1
    26   175   176    1
    27   172   171    1
    28   179   178    1
    29   178   177    1
    30   177   176    1
    31   168   167    1
    32   168   169    1
    33   123   121   ar
    34   170   169    1
    35   118   117    2
    36   165   164    2
    37   167   166    1
    38    60    58   ar
    39   120   121    1
    40   120   119    1
    41   152   151    1
    42   121   122   ar
    43   151   153    1
    44   151   150    2
    45   149   150    1
    46   149   148    1
    47   164   163    1
    48   117   116    1
    49    59    58   ar
    50    58    57    1
    51   166   163    1
    52    44    43    1
    53    20    19    2
    54   116   119    1
    55   116   115    1
    56    43    42    1
    57   163   162    1
    58   148   147    1
    59    42    41    1
    60    86    84    1
    61    19    18    1
    62    57    54    1
    63   147   144    1
    64    84    85    1
    65    84    83    2
    66    54    55    1
    67    54    53    1
    68    41    40    1
    69    83    82    1
    70    21    18    1
    71    18    17    1
    72    15    14    1
    73   146   145    2
    74    56    55    2
    75    40    37    1
    76    55    61   am
    77    17    11   am
    78   144   145    1
    79   144   143    1
    80   157   156    2
    81    64    63    2
    82    13    14    1
    83    13    10    1
    84   130   131    1
    85   130   129    1
    86    53    47   am
    87    82    81    1
    88    61    62    1
    89    39    38    2
    90    11    12    2
    91    11    10    1
    92    14    16    1
    93    48    47    2
    94   156   155    1
    95    47    46    1
    96    63    62    1
    97   124   125    1
    98    37    38    1
    99    37    36    1
   100    10     9    1
   101    38    45   am
   102   125   126    1
   103   125   128    1
   104    36    31   am
   105    81    80    1
   106   129   128    1
   107    45    46    1
   108    46    49    1
   109    80    77    1
   110   126   127    2
   111    94    93   ar
   112   155   154    1
   113   155   158    1
   114     9     3   am
   115    95    93   ar
   116   161   159    1
   117   160   159    1
   118   158   159    1
   119    93    92    1
   120    31    30    1
   121    31    32    2
   122    78    79    2
   123    78    77    1
   124    25    24    2
   125    30    33    1
   126    30    29    1
   127    65    66    1
   128    51    49    1
   129    77    76    1
   130    49    50    1
   131     3     4    2
   132     3     2    1
   133    69    66    1
   134    69    70    1
   135    33    34    1
   136    74    73    1
   137     8     6    1
   138   132   133    1
   139    92    91    1
   140    24    29   am
   141    24    23    1
   142    66    67    1
   143    50    52    1
   144    29    35    1
   145    70    71    1
   146     2     1    1
   147     2     5    1
   148    71    72    1
   149   133   134    1
   150   133   136    1
   151    91    88    1
   152    68    67    2
   153    22    23    1
   154    34    35    1
   155    73    72    2
   156    73    75    1
   157   134   135    2
   158     6     7    1
   159     6     5    1
   160    23    26    1
   161    27    26    1
   162   137   136    1
   163   137   138    1
   164    88    89    1
   165    88    87    1
   166   105   106   ar
   167   105   103   ar
   168    26    28    1
   169   106   104   ar
   170    89    90    2
   171   138   139    1
   172   139   140    2
   173   103   101   ar
   174   113   112    1
   175   104   102   ar
   176   140   142    1
   177   140   141    1
   178   101   102   ar
   179   101   100    1
   180   114   112    1
   181   112   111    1
   182   100    97    1
   183   111   108    1
   184    97    96    1
   185    97    98    1
   186    99    98    2
   187   108   109    1
   188   108   107    1
   189   110   109    2
