@<TRIPOS>MOLECULE
tmp/2q2yB01.pdb
 158 150 0 0 0
SMALL
GASTEIGER

@<TRIPOS>ATOM
      1  N         41.3150    7.3710   57.5300 N.3    95  THR95      -0.1218
      2  CA        41.1520    8.5480   56.6690 C.3    95  THR95       0.1862
      3  C         41.5890    8.2630   55.2430 C.2    95  THR95       0.2287
      4  O         40.9480    8.6540   54.2960 O.2    95  THR95      -0.2866
      5  CB        41.9030    9.7440   57.1840 C.3    95  THR95       0.1770
      6  OG1       41.5280   10.0060   58.5400 O.3    95  THR95      -0.2211
      7  CG2       41.5570   10.9430   56.3340 C.3    95  THR95       0.0375
      8  N         38.6380    9.0890   52.9380 N.3    99  GLU99      -0.1231
      9  CA        38.9140   10.2650   52.1110 C.3    99  GLU99       0.1699
     10  C         40.0190   10.0440   51.0880 C.2    99  GLU99       0.2593
     11  O         39.8840   10.3990   49.9180 O.2    99  GLU99      -0.2718
     12  CB        39.3630   11.4350   52.9850 C.3    99  GLU99       0.0402
     13  CG        38.2720   11.9540   53.8590 C.3    99  GLU99       0.1161
     14  CD        38.7910   12.7020   55.0260 C.2    99  GLU99       0.3649
     15  OE1       39.7720   13.4740   54.8630 O.co2  99  GLU99      -0.2457
     16  OE2       38.1670   12.5520   56.0980 O.co2  99  GLU99      -0.2457
     17  N         41.1570    9.5630   51.5610 N.am  100  GLY100     -0.1942
     18  CA        42.2980    9.3620   50.6900 C.3   100  GLY100      0.2014
     19  C         43.1690   10.5940   50.5240 C.2   100  GLY100      0.2639
     20  O         43.1230   11.5170   51.3350 O.2   100  GLY100     -0.2714
     21  N         43.9650   10.6050   49.4630 N.am  101  GLU101     -0.1963
     22  CA        44.9100   11.6800   49.2220 C.3   101  GLU101      0.1733
     23  C         45.1390   12.1070   47.7500 C.2   101  GLU101      0.2616
     24  O         44.3520   11.7960   46.8470 O.2   101  GLU101     -0.2715
     25  CB        46.2260   11.2960   49.8590 C.3   101  GLU101      0.0429
     26  CG        46.0070   10.5740   51.1630 C.3   101  GLU101      0.1163
     27  CD        47.2390    9.8950   51.6670 C.2   101  GLU101      0.3649
     28  OE1       48.1560    9.7040   50.8340 O.co2 101  GLU101     -0.2457
     29  OE2       47.2900    9.5800   52.8880 O.co2 101  GLU101     -0.2457
     30  N         46.1970   12.8790   47.5320 N.am  102  ARG102     -0.1977
     31  CA        46.4980   13.3580   46.2040 C.3   102  ARG102      0.1597
     32  C         47.7790   12.7100   45.7690 C.2   102  ARG102      0.2287
     33  O         48.7200   12.6010   46.5600 O.2   102  ARG102     -0.2864
     34  CB        46.6490   14.8810   46.2220 C.3   102  ARG102      0.0334
     35  CG        45.3980   15.6000   46.7710 C.3   102  ARG102      0.0492
     36  CD        44.1700   15.1010   46.0270 C.3   102  ARG102      0.2205
     37  NE        44.4650   14.9530   44.6080 N.pl3 102  ARG102     -0.0865
     38  CZ        44.1740   15.8810   43.6980 C.cat 102  ARG102      0.5346
     39  NH1       43.5870   17.0110   44.0750 N.pl3 102  ARG102      0.1354
     40  NH2       44.4400   15.6750   42.4160 N.pl3 102  ARG102      0.1354
     41  N         41.4880   15.8510   40.6010 N.3   110  TRP110     -0.1241
     42  CA        40.8200   15.2480   41.7330 C.3   110  TRP110      0.1605
     43  C         39.9720   14.0250   41.3850 C.2   110  TRP110      0.2264
     44  O         40.0340   13.0100   42.0650 O.2   110  TRP110     -0.2867
     45  CB        40.0590   16.3050   42.5400 C.3   110  TRP110      0.0550
     46  CG        38.7640   16.6070   41.9670 C.ar  110  TRP110      0.0003
     47  CD1       38.4840   17.5410   41.0150 C.ar  110  TRP110      0.0946
     48  CD2       37.5740   15.8480   42.1530 C.ar  110  TRP110      0.0152
     49  NE1       37.1600   17.4520   40.6380 N.ar  110  TRP110     -0.2442
     50  CE2       36.5910   16.3960   41.2950 C.ar  110  TRP110      0.0810
     51  CE3       37.2560   14.7160   42.9160 C.ar  110  TRP110      0.0012
     52  CZ2       35.3000   15.8850   41.2280 C.ar  110  TRP110      0.0191
     53  CZ3       35.9550   14.2220   42.8660 C.ar  110  TRP110      0.0001
     54  CH2       34.9920   14.8210   42.0500 C.ar  110  TRP110      0.0015
     55  N         42.5440   10.8270   40.4420 N.3   113  ASP113     -0.1239
     56  CA        43.5180   10.3080   41.3960 C.3   113  ASP113      0.1674
     57  C         43.2470    8.8660   41.8700 C.2   113  ASP113      0.2266
     58  O         42.1860    8.5390   42.4320 O.2   113  ASP113     -0.2867
     59  CB        43.6660   11.2560   42.5960 C.3   113  ASP113      0.1410
     60  CG        45.1010   11.3570   43.0830 C.2   113  ASP113      0.3668
     61  OD1       45.7530   10.2940   43.1790 O.co2 113  ASP113     -0.2456
     62  OD2       45.5860   12.5060   43.3110 O.co2 113  ASP113     -0.2456
     63  N         42.5100    8.7330   45.5500 N.3   116  ALA116     -0.1245
     64  CA        41.2650    9.2480   46.0900 C.3   116  ALA116      0.1562
     65  C         40.5350    8.0950   46.8090 C.2   116  ALA116      0.2260
     66  O         40.6160    6.9580   46.3590 O.2   116  ALA116     -0.2867
     67  CB        40.4060    9.7980   44.9460 C.3   116  ALA116      0.0290
     68  N         34.7980    9.0510   49.8180 N.3   119  ILE119     -0.1231
     69  CA        34.0770   10.3070   49.7090 C.3   119  ILE119      0.1678
     70  C         34.1400   10.9990   48.3110 C.2   119  ILE119      0.2434
     71  O         33.1030   11.3110   47.7270 O.2   119  ILE119     -0.2733
     72  CB        34.4320   11.2190   50.8760 C.3   119  ILE119      0.0265
     73  CG1       34.0410   10.5430   52.2040 C.3   119  ILE119      0.0019
     74  CG2       33.7360   12.5380   50.7380 C.3   119  ILE119      0.0020
     75  CD1       33.8610   11.5210   53.4250 C.3   119  ILE119      0.0001
     76  N         35.3590   11.2280   47.7650 N.am  120  PRO120     -0.2729
     77  CA        35.4700   11.8950   46.4640 C.3   120  PRO120      0.1401
     78  C         34.8550   11.0350   45.3620 C.2   120  PRO120      0.2269
     79  O         33.9850   11.4840   44.6150 O.2   120  PRO120     -0.2865
     80  CB        36.9750   12.0690   46.2870 C.3   120  PRO120      0.0296
     81  CG        37.6220   11.1380   47.2340 C.3   120  PRO120      0.0237
     82  CD        36.6670   10.9060   48.3590 C.3   120  PRO120      0.0939
     83  N         28.9300   17.9990   56.7530 N.3   143  LEU143     -0.1245
     84  CA        30.0300   17.4130   57.4740 C.3   143  LEU143      0.1561
     85  C         29.9630   17.7950   58.9160 C.2   143  LEU143      0.2260
     86  O         30.2900   18.9180   59.2810 O.2   143  LEU143     -0.2867
     87  CB        31.3640   17.8320   56.8790 C.3   143  LEU143      0.0270
     88  CG        32.6000   17.2590   57.5660 C.3   143  LEU143      0.0019
     89  CD1       32.3290   15.8880   58.1300 C.3   143  LEU143      0.0001
     90  CD2       33.7790   17.2450   56.5570 C.3   143  LEU143      0.0001
     91  N         31.9140   22.2420   57.2640 N.3   155  LEU155     -0.1245
     92  CA        31.5860   22.7120   55.9180 C.3   155  LEU155      0.1561
     93  C         31.0480   24.1400   55.8670 C.2   155  LEU155      0.2260
     94  O         30.8770   24.7000   54.7950 O.2   155  LEU155     -0.2867
     95  CB        30.5250   21.8040   55.3080 C.3   155  LEU155      0.0270
     96  CG        30.9910   20.4910   54.7030 C.3   155  LEU155      0.0019
     97  CD1       30.0480   20.1200   53.5770 C.3   155  LEU155      0.0001
     98  CD2       32.4220   20.5390   54.2730 C.3   155  LEU155      0.0001
     99  N         35.0340   19.4890   44.4060 N.3   194  TYR194     -0.1241
    100  CA        36.3700   19.7120   44.9180 C.3   194  TYR194      0.1605
    101  C         36.4970   20.9630   45.7730 C.2   194  TYR194      0.2264
    102  O         37.1450   20.9540   46.8260 O.2   194  TYR194     -0.2867
    103  CB        37.4040   19.6570   43.8120 C.3   194  TYR194      0.0534
    104  CG        38.8140   19.5280   44.3140 C.ar  194  TYR194     -0.0201
    105  CD1       39.2630   18.3550   44.9250 C.ar  194  TYR194     -0.0009
    106  CD2       39.7060   20.5660   44.1490 C.ar  194  TYR194     -0.0009
    107  CE1       40.5730   18.2200   45.3300 C.ar  194  TYR194      0.0417
    108  CE2       40.9980   20.4780   44.6370 C.ar  194  TYR194      0.0417
    109  CZ        41.4380   19.3000   45.2120 C.ar  194  TYR194      0.1957
    110  OH        42.7500   19.2380   45.6480 O.3   194  TYR194     -0.2866
    111  N         35.2380   20.1940   49.3350 N.3   197  LEU197     -0.1231
    112  CA        36.1710   19.4320   50.1330 C.3   197  LEU197      0.1693
    113  C         37.3690   20.3020   50.5510 C.2   197  LEU197      0.2591
    114  O         37.8480   20.2110   51.6680 O.2   197  LEU197     -0.2718
    115  CB        36.6340   18.2180   49.3380 C.3   197  LEU197      0.0284
    116  CG        35.5700   17.3460   48.6590 C.3   197  LEU197      0.0019
    117  CD1       36.2060   16.0790   48.1150 C.3   197  LEU197      0.0001
    118  CD2       34.4520   16.9630   49.5910 C.3   197  LEU197      0.0001
    119  N         37.8550   21.1520   49.6520 N.am  198  GLU198     -0.1979
    120  CA        38.9810   22.0360   49.9790 C.3   198  GLU198      0.1602
    121  C         38.6270   22.9400   51.1620 C.2   198  GLU198      0.2287
    122  O         39.3860   23.1080   52.1120 O.2   198  GLU198     -0.2864
    123  CB        39.3160   22.9060   48.7770 C.3   198  GLU198      0.0415
    124  CG        40.2820   22.2680   47.8220 C.3   198  GLU198      0.1163
    125  CD        40.7140   23.2230   46.7550 C.2   198  GLU198      0.3649
    126  OE1       41.9440   23.3710   46.5560 O.co2 198  GLU198     -0.2457
    127  OE2       39.8100   23.8250   46.1310 O.co2 198  GLU198     -0.2457
    128  N         36.3800   22.3440   53.5770 N.3   200  GLY200     -0.1210
    129  CA        36.3090   21.5670   54.8000 C.3   200  GLY200      0.1956
    130  C         37.6940   21.1440   55.2540 C.2   200  GLY200      0.2611
    131  O         37.9920   21.1400   56.4620 O.2   200  GLY200     -0.2717
    132  N         38.5660   20.8430   54.2980 N.am  201  ALA201     -0.1979
    133  CA        39.9520   20.4780   54.6280 C.3   201  ALA201      0.1597
    134  C         40.6380   21.6450   55.3620 C.2   201  ALA201      0.2287
    135  O         41.3560   21.4460   56.3340 O.2   201  ALA201     -0.2864
    136  CB        40.7190   20.1040   53.3860 C.3   201  ALA201      0.0319
    137  N         39.4100   22.1310   58.9420 N.3   204  ARG204     -0.1245
    138  CA        39.9290   21.0970   59.8180 C.3   204  ARG204      0.1563
    139  C         41.3250   21.4400   60.3080 C.2   204  ARG204      0.2260
    140  O         41.6810   21.1580   61.4490 O.2   204  ARG204     -0.2867
    141  CB        39.9180   19.7830   59.0850 C.3   204  ARG204      0.0307
    142  CG        38.6480   19.0580   59.1930 C.3   204  ARG204      0.0489
    143  CD        38.8310   17.7310   58.5210 C.3   204  ARG204      0.2205
    144  NE        37.6320   16.9030   58.6050 N.pl3 204  ARG204     -0.0865
    145  CZ        37.4650   15.8110   57.8740 C.cat 204  ARG204      0.5346
    146  NH1       38.4200   15.4630   57.0020 N.pl3 204  ARG204      0.1354
    147  NH2       36.3640   15.0790   58.0190 N.pl3 204  ARG204      0.1354
    148  N         30.2570   12.4510   57.4120 N.3   222  PHE222     -0.1241
    149  CA        30.0420   13.0890   56.1430 C.3   222  PHE222      0.1605
    150  C         28.7350   12.5360   55.5900 C.2   222  PHE222      0.2264
    151  O         28.6060   11.3280   55.3680 O.2   222  PHE222     -0.2867
    152  CB        31.1800   12.7280   55.1780 C.3   222  PHE222      0.0534
    153  CG        31.2270   13.6070   53.9510 C.ar  222  PHE222     -0.0203
    154  CD1       30.3030   13.4510   52.9360 C.ar  222  PHE222     -0.0042
    155  CD2       32.1160   14.6700   53.8660 C.ar  222  PHE222     -0.0042
    156  CE1       30.3120   14.2990   51.8260 C.ar  222  PHE222     -0.0003
    157  CE2       32.1090   15.5210   52.7630 C.ar  222  PHE222     -0.0003
    158  CZ        31.2340   15.3290   51.7370 C.ar  222  PHE222     -0.0000
@<TRIPOS>BOND
     1    55    56    1
     2    41    42    1
     3    49    47   ar
     4    49    50   ar
     5    47    46   ar
     6    52    50   ar
     7    52    54   ar
     8    50    48   ar
     9    43    42    1
    10    43    44    2
    11    56    57    1
    12    56    59    1
    13    42    45    1
    14    57    58    2
    15    46    48   ar
    16    46    45    1
    17    54    53   ar
    18    48    51   ar
    19    40    38    1
    20    59    60    1
    21    53    51   ar
    22    60    61   ar
    23    60    62   ar
    24    38    39    1
    25    38    37    2
    26   103   104    1
    27   103   100    1
    28   106   104   ar
    29   106   108   ar
    30   104   105   ar
    31    99   100    1
    32    37    36    1
    33    79    78    2
    34   108   109   ar
    35   100   101    1
    36   105   107   ar
    37    67    64    1
    38   109   107   ar
    39   109   110    1
    40    78    77    1
    41    63    64    1
    42    32    31    1
    43    32    33    2
    44   101   102    2
    45    36    35    1
    46    64    65    1
    47   127   125   ar
    48    31    34    1
    49    31    30    1
    50    34    35    1
    51    80    77    1
    52    80    81    1
    53    66    65    2
    54    77    76    1
    55   126   125   ar
    56   125   124    1
    57    24    23    2
    58    81    82    1
    59    30    23   am
    60    71    70    2
    61    23    22    1
    62    76    70   am
    63    76    82    1
    64   124   123    1
    65   117   116    1
    66    70    69    1
    67   116   115    1
    68   116   118    1
    69   123   120    1
    70    22    21    1
    71    22    25    1
    72   111   112    1
    73   115   112    1
    74    21    19   am
    75   119   120    1
    76   119   113   am
    77    69    68    1
    78    69    72    1
    79    25    26    1
    80    11    10    2
    81   120   121    1
    82   112   113    1
    83    19    18    1
    84    19    20    2
    85   113   114    2
    86    18    17    1
    87    74    72    1
    88    28    27   ar
    89    72    73    1
    90    10    17   am
    91    10     9    1
    92   121   122    2
    93    26    27    1
    94    27    29   ar
    95   158   156   ar
    96   158   157   ar
    97   156   154   ar
    98     9     8    1
    99     9    12    1
   100    73    75    1
   101   157   155   ar
   102   154   153   ar
   103    12    13    1
   104   136   133    1
   105   128   129    1
   106    97    96    1
   107    13    14    1
   108   155   153   ar
   109   153   152    1
   110    98    96    1
   111     4     3    2
   112   132   133    1
   113   132   130   am
   114   133   134    1
   115    96    95    1
   116    94    93    2
   117   129   130    1
   118    15    14   ar
   119    14    16   ar
   120   152   149    1
   121     3     2    1
   122   130   131    2
   123    95    92    1
   124   134   135    2
   125   151   150    2
   126   150   149    1
   127    93    92    1
   128    92    91    1
   129   149   148    1
   130     7     5    1
   131    90    88    1
   132     2     5    1
   133     2     1    1
   134    83    84    1
   135    87    84    1
   136    87    88    1
   137   146   145    1
   138     5     6    1
   139    84    85    1
   140    88    89    1
   141   145   147    1
   142   145   144    2
   143   143   144    1
   144   143   142    1
   145    85    86    2
   146   137   138    1
   147   141   142    1
   148   141   138    1
   149   138   139    1
   150   139   140    2
