@<TRIPOS>MOLECULE
tmp/2q2zB01.pdb
 165 157 0 0 0
SMALL
GASTEIGER

@<TRIPOS>ATOM
      1  N         42.1400    7.0020   57.8030 N.3    95  THR95      -0.1218
      2  CA        41.8830    8.2180   57.0840 C.3    95  THR95       0.1862
      3  C         42.2780    8.1360   55.6340 C.2    95  THR95       0.2287
      4  O         41.7400    8.8380   54.7640 O.2    95  THR95      -0.2866
      5  CB        42.5120    9.3860   57.7900 C.3    95  THR95       0.1770
      6  OG1       41.9250    9.5050   59.0990 O.3    95  THR95      -0.2211
      7  CG2       42.3160   10.6590   56.9690 C.3    95  THR95       0.0375
      8  N         39.3960    8.8670   53.1940 N.3    99  GLU99      -0.1231
      9  CA        39.5360   10.1200   52.4930 C.3    99  GLU99       0.1699
     10  C         40.5730   10.0150   51.3920 C.2    99  GLU99       0.2593
     11  O         40.3730   10.5260   50.2760 O.2    99  GLU99      -0.2718
     12  CB        39.8490   11.2350   53.4730 C.3    99  GLU99       0.0402
     13  CG        38.7820   11.3620   54.5270 C.3    99  GLU99       0.1161
     14  CD        38.9550   12.5850   55.3560 C.2    99  GLU99       0.3649
     15  OE1       39.8750   13.3570   55.0460 O.co2  99  GLU99      -0.2457
     16  OE2       38.2340   12.7540   56.3530 O.co2  99  GLU99      -0.2457
     17  N         41.6650    9.3230   51.7020 N.am  100  GLY100     -0.1942
     18  CA        42.7520    9.1280   50.7620 C.3   100  GLY100      0.2014
     19  C         43.6710   10.3280   50.6300 C.2   100  GLY100      0.2639
     20  O         43.3890   11.4100   51.1390 O.2   100  GLY100     -0.2714
     21  N         44.7850   10.1180   49.9380 N.am  101  GLU101     -0.1963
     22  CA        45.7670   11.1720   49.7220 C.3   101  GLU101      0.1733
     23  C         45.8820   11.5630   48.2460 C.2   101  GLU101      0.2616
     24  O         45.2630   10.9540   47.3640 O.2   101  GLU101     -0.2715
     25  CB        47.1030   10.7110   50.2600 C.3   101  GLU101      0.0429
     26  CG        46.8970    9.8030   51.4410 C.3   101  GLU101      0.1163
     27  CD        48.0830    9.7840   52.3860 C.2   101  GLU101      0.3649
     28  OE1       49.2360    9.6340   51.8790 O.co2 101  GLU101     -0.2457
     29  OE2       47.8490    9.9050   53.6280 O.co2 101  GLU101     -0.2457
     30  N         46.6430   12.6120   47.9820 N.am  102  ARG102     -0.1977
     31  CA        46.8750   13.0290   46.6160 C.3   102  ARG102      0.1597
     32  C         48.2320   12.4660   46.1990 C.2   102  ARG102      0.2287
     33  O         49.1800   12.4310   47.0000 O.2   102  ARG102     -0.2864
     34  CB        46.8830   14.5470   46.5350 C.3   102  ARG102      0.0334
     35  CG        45.4920   15.1450   46.6550 C.3   102  ARG102      0.0492
     36  CD        44.5110   14.3430   45.8330 C.3   102  ARG102      0.2205
     37  NE        44.7910   14.5000   44.4060 N.pl3 102  ARG102     -0.0865
     38  CZ        44.5200   15.6000   43.7190 C.cat 102  ARG102      0.5346
     39  NH1       43.9130   16.6060   44.3280 N.pl3 102  ARG102      0.1354
     40  NH2       44.8410   15.6890   42.4330 N.pl3 102  ARG102      0.1354
     41  N         42.3980   15.6480   40.3980 N.3   110  TRP110     -0.1241
     42  CA        41.5100   15.1390   41.4120 C.3   110  TRP110      0.1605
     43  C         40.6280   13.9450   41.0300 C.2   110  TRP110      0.2264
     44  O         40.7750   12.8670   41.6120 O.2   110  TRP110     -0.2867
     45  CB        40.8510   16.2370   42.2540 C.3   110  TRP110      0.0550
     46  CG        39.4790   16.5200   41.8700 C.ar  110  TRP110      0.0003
     47  CD1       39.0240   17.6080   41.1880 C.ar  110  TRP110      0.0946
     48  CD2       38.3470   15.6930   42.1160 C.ar  110  TRP110      0.0152
     49  NE1       37.6710   17.4980   40.9730 N.ar  110  TRP110     -0.2442
     50  CE2       37.2350   16.3270   41.5310 C.ar  110  TRP110      0.0810
     51  CE3       38.1780   14.4430   42.7100 C.ar  110  TRP110      0.0012
     52  CZ2       35.9730   15.7580   41.5330 C.ar  110  TRP110      0.0191
     53  CZ3       36.9220   13.8940   42.7330 C.ar  110  TRP110      0.0001
     54  CH2       35.8310   14.5500   42.1440 C.ar  110  TRP110      0.0015
     55  N         42.9870   10.5430   40.7070 N.3   113  ASP113     -0.1239
     56  CA        44.0220   10.1350   41.6730 C.3   113  ASP113      0.1674
     57  C         43.7480    8.8380   42.4040 C.2   113  ASP113      0.2266
     58  O         42.9390    8.7670   43.3290 O.2   113  ASP113     -0.2867
     59  CB        44.3450   11.2460   42.6700 C.3   113  ASP113      0.1410
     60  CG        45.7540   11.1240   43.2480 C.2   113  ASP113      0.3668
     61  OD1       46.1270   10.0200   43.6950 O.co2 113  ASP113     -0.2456
     62  OD2       46.5080   12.1290   43.2380 O.co2 113  ASP113     -0.2456
     63  N         43.2560    8.2710   45.8990 N.3   116  ALA116     -0.1245
     64  CA        42.0560    8.8870   46.4380 C.3   116  ALA116      0.1562
     65  C         41.1380    7.7870   47.0220 C.2   116  ALA116      0.2260
     66  O         41.0100    6.6880   46.4440 O.2   116  ALA116     -0.2867
     67  CB        41.3640    9.7360   45.4240 C.3   116  ALA116      0.0290
     68  N         35.3530    8.8840   50.0990 N.3   119  ILE119     -0.1231
     69  CA        34.6000   10.1150   49.9390 C.3   119  ILE119      0.1678
     70  C         34.6780   10.7650   48.5660 C.2   119  ILE119      0.2434
     71  O         33.6440   10.9630   47.9120 O.2   119  ILE119     -0.2733
     72  CB        34.7920   11.0900   51.0980 C.3   119  ILE119      0.0265
     73  CG1       34.0170   10.6040   52.3330 C.3   119  ILE119      0.0019
     74  CG2       34.3770   12.4950   50.6820 C.3   119  ILE119      0.0020
     75  CD1       34.3350   11.3900   53.6170 C.3   119  ILE119      0.0001
     76  N         35.9010   11.0530   48.0800 N.am  120  PRO120     -0.2729
     77  CA        36.0470   11.6550   46.7380 C.3   120  PRO120      0.1401
     78  C         35.2990   10.8460   45.6700 C.2   120  PRO120      0.2269
     79  O         34.3520   11.3250   45.0620 O.2   120  PRO120     -0.2865
     80  CB        37.5630   11.6000   46.4890 C.3   120  PRO120      0.0296
     81  CG        38.1910   10.9660   47.7510 C.3   120  PRO120      0.0237
     82  CD        37.1630   11.0590   48.8310 C.3   120  PRO120      0.0939
     83  N         29.5250   17.7470   57.2630 N.3   143  LEU143     -0.1245
     84  CA        30.7760   17.4360   57.9700 C.3   143  LEU143      0.1561
     85  C         30.7040   17.5880   59.5040 C.2   143  LEU143      0.2260
     86  O         31.3570   18.4500   60.1070 O.2   143  LEU143     -0.2867
     87  CB        31.9730   18.1750   57.3860 C.3   143  LEU143      0.0270
     88  CG        33.1410   17.2580   57.7120 C.3   143  LEU143      0.0019
     89  CD1       32.5880   15.8550   58.0460 C.3   143  LEU143      0.0001
     90  CD2       34.1910   17.1750   56.6020 C.3   143  LEU143      0.0001
     91  N         32.4810   22.2870   57.3660 N.3   155  LEU155     -0.1245
     92  CA        32.3080   22.9750   56.0780 C.3   155  LEU155      0.1561
     93  C         31.4860   24.2790   56.1660 C.2   155  LEU155      0.2260
     94  O         31.2170   24.9150   55.1600 O.2   155  LEU155     -0.2867
     95  CB        31.7010   22.0530   55.0220 C.3   155  LEU155      0.0270
     96  CG        32.2850   20.6590   54.7680 C.3   155  LEU155      0.0019
     97  CD1       31.2800   19.7120   54.1210 C.3   155  LEU155      0.0001
     98  CD2       33.5880   20.6860   53.9640 C.3   155  LEU155      0.0001
     99  N         35.6700   18.8870   44.6360 N.3   194  TYR194     -0.1241
    100  CA        37.0780   19.0690   45.0620 C.3   194  TYR194      0.1605
    101  C         37.3540   20.2550   45.9360 C.2   194  TYR194      0.2264
    102  O         38.0480   20.1470   46.9360 O.2   194  TYR194     -0.2867
    103  CB        38.0630   19.0820   43.8990 C.3   194  TYR194      0.0534
    104  CG        39.5010   19.0940   44.3550 C.ar  194  TYR194     -0.0201
    105  CD1       40.0980   17.9610   44.8940 C.ar  194  TYR194     -0.0009
    106  CD2       40.2650   20.2410   44.2600 C.ar  194  TYR194     -0.0009
    107  CE1       41.4250   17.9800   45.3500 C.ar  194  TYR194      0.0417
    108  CE2       41.5940   20.2700   44.6950 C.ar  194  TYR194      0.0417
    109  CZ        42.1690   19.1410   45.2340 C.ar  194  TYR194      0.1957
    110  OH        43.4780   19.2010   45.6690 O.3   194  TYR194     -0.2866
    111  N         35.8310   20.0960   49.6180 N.3   197  LEU197     -0.1231
    112  CA        36.7050   19.4320   50.5570 C.3   197  LEU197      0.1693
    113  C         37.7710   20.4370   51.0240 C.2   197  LEU197      0.2591
    114  O         37.8750   20.7300   52.2310 O.2   197  LEU197     -0.2718
    115  CB        37.2850   18.1730   49.9300 C.3   197  LEU197      0.0284
    116  CG        36.1530   17.4100   49.2070 C.3   197  LEU197      0.0019
    117  CD1       36.6490   16.3670   48.2120 C.3   197  LEU197      0.0001
    118  CD2       35.1120   16.8000   50.1600 C.3   197  LEU197      0.0001
    119  N         38.4760   21.0400   50.0610 N.am  198  GLU198     -0.1979
    120  CA        39.4920   22.0700   50.3180 C.3   198  GLU198      0.1602
    121  C         39.1640   23.0160   51.4960 C.2   198  GLU198      0.2287
    122  O         40.0450   23.3730   52.3020 O.2   198  GLU198     -0.2864
    123  CB        39.7140   22.8680   49.0460 C.3   198  GLU198      0.0415
    124  CG        40.1570   22.0030   47.9000 C.3   198  GLU198      0.1163
    125  CD        41.0270   22.7510   46.9060 C.2   198  GLU198      0.3649
    126  OE1       42.1470   22.2760   46.6170 O.co2 198  GLU198     -0.2457
    127  OE2       40.5860   23.8190   46.4190 O.co2 198  GLU198     -0.2457
    128  N         37.2440   22.1400   54.0350 N.3   200  GLY200     -0.1210
    129  CA        37.0720   21.3280   55.2280 C.3   200  GLY200      0.1956
    130  C         38.4720   21.0480   55.7080 C.2   200  GLY200      0.2611
    131  O         38.7900   21.1880   56.9040 O.2   200  GLY200     -0.2717
    132  N         39.3300   20.7110   54.7400 N.am  201  ALA201     -0.1979
    133  CA        40.7280   20.4210   55.0240 C.3   201  ALA201      0.1597
    134  C         41.2820   21.6690   55.6730 C.2   201  ALA201      0.2287
    135  O         41.8720   21.6120   56.7590 O.2   201  ALA201     -0.2864
    136  CB        41.4670   20.0990   53.7630 C.3   201  ALA201      0.0319
    137  N         39.9260   22.1550   59.0260 N.3   204  ARG204     -0.1231
    138  CA        40.3360   21.1020   59.9800 C.3   204  ARG204      0.1694
    139  C         41.7070   21.3490   60.6010 C.2   204  ARG204      0.2592
    140  O         42.0890   20.6880   61.5450 O.2   204  ARG204     -0.2718
    141  CB        40.4160   19.7460   59.2870 C.3   204  ARG204      0.0321
    142  CG        39.2630   18.7790   59.5290 C.3   204  ARG204      0.0489
    143  CD        39.4550   17.5780   58.6210 C.3   204  ARG204      0.2205
    144  NE        38.3710   16.6250   58.7560 N.pl3 204  ARG204     -0.0865
    145  CZ        38.1300   15.6210   57.9030 C.cat 204  ARG204      0.5346
    146  NH1       38.9000   15.4310   56.8170 N.pl3 204  ARG204      0.1354
    147  NH2       37.0870   14.8080   58.1310 N.pl3 204  ARG204      0.1354
    148  N         42.4910   22.2240   59.9960 N.am  205  THR205     -0.1953
    149  CA        43.8160   22.5060   60.4870 C.3   205  THR205      0.1897
    150  C         43.6950   23.4960   61.6300 C.2   205  THR205      0.2313
    151  O         44.5730   23.5470   62.5240 O.2   205  THR205     -0.2863
    152  CB        44.6440   23.1530   59.4010 C.3   205  THR205      0.1794
    153  OG1       45.3120   22.1740   58.5920 O.3   205  THR205     -0.2208
    154  CG2       45.6400   24.0900   60.0280 C.3   205  THR205      0.0378
    155  N         30.8000   12.4710   57.6220 N.3   222  PHE222     -0.1241
    156  CA        30.6320   13.1220   56.3340 C.3   222  PHE222      0.1605
    157  C         29.4400   12.4410   55.7270 C.2   222  PHE222      0.2264
    158  O         29.5060   11.2620   55.3980 O.2   222  PHE222     -0.2867
    159  CB        31.8470   12.8790   55.4340 C.3   222  PHE222      0.0534
    160  CG        31.8420   13.7070   54.1800 C.ar  222  PHE222     -0.0203
    161  CD1       30.9520   13.4440   53.1620 C.ar  222  PHE222     -0.0042
    162  CD2       32.6350   14.8060   54.0730 C.ar  222  PHE222     -0.0042
    163  CE1       30.9020   14.2360   52.0360 C.ar  222  PHE222     -0.0003
    164  CE2       32.5900   15.5970   52.9430 C.ar  222  PHE222     -0.0003
    165  CZ        31.7320   15.3090   51.9210 C.ar  222  PHE222     -0.0000
@<TRIPOS>BOND
     1    41    42    1
     2    55    56    1
     3    49    47   ar
     4    49    50   ar
     5    43    42    1
     6    43    44    2
     7    47    46   ar
     8    42    45    1
     9    50    52   ar
    10    50    48   ar
    11    52    54   ar
    12    56    57    1
    13    56    59    1
    14    46    48   ar
    15    46    45    1
    16    48    51   ar
    17    54    53   ar
    18    57    58    2
    19    40    38    1
    20    59    60    1
    21    51    53   ar
    22    62    60   ar
    23    60    61   ar
    24    38    39    1
    25    38    37    2
    26   103   104    1
    27   103   100    1
    28   106   104   ar
    29   106   108   ar
    30   104   105   ar
    31    37    36    1
    32    99   100    1
    33   108   109   ar
    34   105   107   ar
    35   100   101    1
    36    79    78    2
    37   109   107   ar
    38   109   110    1
    39    67    64    1
    40    78    77    1
    41    36    35    1
    42    63    64    1
    43   101   102    2
    44    32    31    1
    45    32    33    2
    46   127   125   ar
    47    64    65    1
    48    66    65    2
    49    80    77    1
    50    80    81    1
    51    34    31    1
    52    34    35    1
    53    31    30    1
    54   126   125   ar
    55    77    76    1
    56   125   124    1
    57    24    23    2
    58    81    82    1
    59   124   123    1
    60    71    70    2
    61    30    23   am
    62    76    70   am
    63    76    82    1
    64   117   116    1
    65    23    22    1
    66    70    69    1
    67   123   120    1
    68   116   115    1
    69   116   118    1
    70   111   112    1
    71    22    21    1
    72    22    25    1
    73   115   112    1
    74    21    19   am
    75    69    68    1
    76    69    72    1
    77   119   120    1
    78   119   113   am
    79    25    26    1
    80    11    10    2
    81   120   121    1
    82   112   113    1
    83    19    18    1
    84    19    20    2
    85    74    72    1
    86    18    17    1
    87   113   114    2
    88    72    73    1
    89    10    17   am
    90    10     9    1
    91    26    27    1
    92   121   122    2
    93    28    27   ar
    94   165   163   ar
    95   165   164   ar
    96   163   161   ar
    97    73    75    1
    98    27    29   ar
    99     9     8    1
   100     9    12    1
   101   164   162   ar
   102   161   160   ar
   103    12    13    1
   104   136   133    1
   105    98    96    1
   106   128   129    1
   107   162   160   ar
   108    97    96    1
   109   160   159    1
   110    13    14    1
   111   132   133    1
   112   132   130   am
   113     4     3    2
   114    96    95    1
   115    95    92    1
   116   133   134    1
   117    15    14   ar
   118    94    93    2
   119   129   130    1
   120    14    16   ar
   121   158   157    2
   122   159   156    1
   123     3     2    1
   124   134   135    2
   125   130   131    2
   126   157   156    1
   127    92    93    1
   128    92    91    1
   129   156   155    1
   130    90    88    1
   131   146   145    1
   132     7     5    1
   133     2     5    1
   134     2     1    1
   135    83    84    1
   136    87    88    1
   137    87    84    1
   138    88    89    1
   139     5     6    1
   140   145   147    1
   141   145   144    2
   142    84    85    1
   143   153   152    1
   144   143   144    1
   145   143   142    1
   146   137   138    1
   147   141   142    1
   148   141   138    1
   149   152   154    1
   150   152   149    1
   151    85    86    2
   152   138   139    1
   153   148   149    1
   154   148   139   am
   155   149   150    1
   156   139   140    2
   157   150   151    2
