@<TRIPOS>MOLECULE
tmp/2q31A01.pdb
 134 124 0 0 0
SMALL
GASTEIGER

@<TRIPOS>ATOM
      1  N         29.8300   30.9370   22.9490 N.3    11  GLY11      -0.1210
      2  CA        29.7460   31.8680   24.0730 C.3    11  GLY11       0.1956
      3  C         28.4990   32.7260   24.0620 C.2    11  GLY11       0.2611
      4  O         27.7380   32.7380   25.0310 O.2    11  GLY11      -0.2717
      5  N         28.2910   33.4470   22.9640 N.am   12  LEU12      -0.1979
      6  CA        27.1540   34.3580   22.8320 C.3    12  LEU12       0.1596
      7  C         26.2330   33.9740   21.6860 C.2    12  LEU12       0.2287
      8  O         26.6250   33.2510   20.7720 O.2    12  LEU12      -0.2864
      9  CB        27.6480   35.7900   22.5970 C.3    12  LEU12       0.0297
     10  CG        28.4350   36.4820   23.7110 C.3    12  LEU12       0.0022
     11  CD1       29.0130   37.8010   23.2050 C.3    12  LEU12       0.0001
     12  CD2       27.5640   36.7090   24.9410 C.3    12  LEU12       0.0001
     13  N         24.0010   35.4840   26.4330 N.3    28  PRO28      -0.2116
     14  CA        24.8010   34.2760   26.6180 C.3    28  PRO28       0.1372
     15  C         24.1270   33.0030   26.1310 C.2    28  PRO28       0.2244
     16  O         22.9120   32.9070   26.1720 O.2    28  PRO28      -0.2868
     17  CB        24.9890   34.2200   28.1380 C.3    28  PRO28       0.0268
     18  CG        23.8400   34.9800   28.6920 C.3    28  PRO28       0.0207
     19  CD        23.6410   36.0960   27.7270 C.3    28  PRO28       0.0892
     20  N         23.7100   30.0870   27.4790 N.3    30  ILE30      -0.1245
     21  CA        23.7320   29.3250   28.7300 C.3    30  ILE30       0.1561
     22  C         22.3610   28.8150   29.1680 C.2    30  ILE30       0.2260
     23  O         21.3230   29.3540   28.7700 O.2    30  ILE30      -0.2867
     24  CB        24.3200   30.1630   29.8950 C.3    30  ILE30       0.0252
     25  CG1       23.5180   31.4540   30.1100 C.3    30  ILE30       0.0019
     26  CG2       25.7790   30.4790   29.6270 C.3    30  ILE30       0.0019
     27  CD1       24.0440   32.3200   31.2330 C.3    30  ILE30       0.0001
     28  N         25.4610   26.3140   35.6150 N.3    36  LEU36      -0.1245
     29  CA        25.2630   26.7270   34.2150 C.3    36  LEU36       0.1561
     30  C         25.7700   25.7020   33.2020 C.2    36  LEU36       0.2260
     31  O         26.6200   24.8730   33.5130 O.2    36  LEU36      -0.2867
     32  CB        25.9370   28.0790   33.9450 C.3    36  LEU36       0.0270
     33  CG        25.4580   29.2770   34.7730 C.3    36  LEU36       0.0019
     34  CD1       26.1470   30.5380   34.2850 C.3    36  LEU36       0.0001
     35  CD2       23.9400   29.4460   34.7150 C.3    36  LEU36       0.0001
     36  N         26.7570   25.3880   28.8340 N.3    38  TYR38      -0.1241
     37  CA        26.9440   25.8840   27.4690 C.3    38  TYR38       0.1605
     38  C         26.5650   24.7630   26.4970 C.2    38  TYR38       0.2264
     39  O         27.3420   23.8240   26.3100 O.2    38  TYR38      -0.2867
     40  CB        28.4080   26.2870   27.2330 C.3    38  TYR38       0.0534
     41  CG        28.9020   27.4300   28.0940 C.ar   38  TYR38      -0.0201
     42  CD1       29.4100   27.1980   29.3680 C.ar   38  TYR38      -0.0009
     43  CD2       28.8740   28.7450   27.6290 C.ar   38  TYR38      -0.0009
     44  CE1       29.8680   28.2430   30.1610 C.ar   38  TYR38       0.0417
     45  CE2       29.3300   29.7970   28.4150 C.ar   38  TYR38       0.0417
     46  CZ        29.8240   29.5390   29.6790 C.ar   38  TYR38       0.1957
     47  OH        30.2800   30.5730   30.4630 O.3    38  TYR38      -0.2866
     48  N         34.6890   32.3940   21.1050 N.3   126  ASP126     -0.1239
     49  CA        34.9020   32.1470   22.5230 C.3   126  ASP126      0.1674
     50  C         35.2060   30.6610   22.7580 C.2   126  ASP126      0.2266
     51  O         35.8550   30.3010   23.7410 O.2   126  ASP126     -0.2867
     52  CB        33.6460   32.5510   23.3070 C.3   126  ASP126      0.1410
     53  CG        33.8080   32.3960   24.8140 C.2   126  ASP126      0.3668
     54  OD1       34.9330   32.5850   25.3350 O.co2 126  ASP126     -0.2456
     55  OD2       32.7960   32.1010   25.4800 O.co2 126  ASP126     -0.2456
     56  N         37.5870   31.8550   25.7680 N.3   152  ARG152     -0.1245
     57  CA        37.3760   31.1990   27.0660 C.3   152  ARG152      0.1563
     58  C         38.6670   30.5440   27.5480 C.2   152  ARG152      0.2260
     59  O         39.0620   30.7290   28.6990 O.2   152  ARG152     -0.2867
     60  CB        36.2450   30.1690   27.0130 C.3   152  ARG152      0.0307
     61  CG        35.5480   29.9460   28.3690 C.3   152  ARG152      0.0489
     62  CD        34.3970   28.9530   28.2630 C.3   152  ARG152      0.2205
     63  NE        33.5190   29.2480   27.1300 N.pl3 152  ARG152     -0.0865
     64  CZ        32.5730   28.4310   26.6620 C.cat 152  ARG152      0.5346
     65  NH1       32.3470   27.2460   27.2250 N.pl3 152  ARG152      0.1354
     66  NH2       31.8380   28.8020   25.6160 N.pl3 152  ARG152      0.1354
     67  N         40.7990   33.4060   28.5210 N.3   155  THR155     -0.1218
     68  CA        40.3660   33.9600   29.8170 C.3   155  THR155      0.1862
     69  C         40.8810   33.1090   30.9840 C.2   155  THR155      0.2287
     70  O         41.3280   33.6450   32.0010 O.2   155  THR155     -0.2866
     71  CB        38.8260   34.0240   29.9350 C.3   155  THR155      0.1770
     72  OG1       38.2760   34.7010   28.7990 O.3   155  THR155     -0.2211
     73  CG2       38.4100   34.7530   31.2100 C.3   155  THR155      0.0375
     74  N         33.7270   31.2500   39.1480 N.3   172  THR172     -0.1203
     75  CA        33.1760   31.5770   37.8350 C.3   172  THR172      0.1994
     76  C         32.7040   33.0320   37.7260 C.2   172  THR172      0.2617
     77  O         32.7830   33.6330   36.6540 O.2   172  THR172     -0.2717
     78  CB        32.0170   30.6340   37.4960 C.3   172  THR172      0.1784
     79  OG1       31.0800   30.6380   38.5760 O.3   172  THR172     -0.2211
     80  CG2       32.5310   29.2120   37.2930 C.3   172  THR172      0.0376
     81  N         32.2090   33.5890   38.8270 N.am  173  ALA173     -0.1979
     82  CA        31.8080   34.9980   38.8650 C.3   173  ALA173      0.1597
     83  C         33.0360   35.8780   38.6460 C.2   173  ALA173      0.2287
     84  O         32.9820   36.8670   37.9100 O.2   173  ALA173     -0.2864
     85  CB        31.1430   35.3310   40.1960 C.3   173  ALA173      0.0319
     86  N         35.7270   34.8350   37.1370 N.3   175  ARG175     -0.1231
     87  CA        36.1880   34.5590   35.7810 C.3   175  ARG175      0.1694
     88  C         35.6910   35.6200   34.7950 C.2   175  ARG175      0.2591
     89  O         36.4100   36.0000   33.8750 O.2   175  ARG175     -0.2718
     90  CB        35.7660   33.1560   35.3300 C.3   175  ARG175      0.0321
     91  CG        36.2790   32.8030   33.9450 C.3   175  ARG175      0.0489
     92  CD        36.2440   31.3130   33.6380 C.3   175  ARG175      0.2205
     93  NE        34.9240   30.8570   33.2120 N.pl3 175  ARG175     -0.0865
     94  CZ        34.6900   29.7370   32.5220 C.cat 175  ARG175      0.5346
     95  NH1       35.6870   28.9370   32.1550 N.pl3 175  ARG175      0.1354
     96  NH2       33.4430   29.4190   32.1820 N.pl3 175  ARG175      0.1354
     97  N         34.4730   36.1070   34.9980 N.am  176  GLU176     -0.1979
     98  CA        33.9130   37.1580   34.1420 C.3   176  GLU176      0.1602
     99  C         34.7070   38.4580   34.2950 C.2   176  GLU176      0.2287
    100  O         34.9060   39.1900   33.3240 O.2   176  GLU176     -0.2864
    101  CB        32.4380   37.4120   34.4730 C.3   176  GLU176      0.0415
    102  CG        31.5490   36.1770   34.3890 C.3   176  GLU176      0.1163
    103  CD        31.5600   35.5330   33.0190 C.2   176  GLU176      0.3649
    104  OE1       31.4130   36.2670   32.0190 O.co2 176  GLU176     -0.2457
    105  OE2       31.6940   34.2900   32.9430 O.co2 176  GLU176     -0.2457
    106  N         37.6440   38.0970   32.3160 N.3   179  ARG179     -0.1245
    107  CA        37.2820   38.2430   30.9090 C.3   179  ARG179      0.1563
    108  C         37.2440   39.7320   30.5820 C.2   179  ARG179      0.2260
    109  O         37.7990   40.1590   29.5750 O.2   179  ARG179     -0.2867
    110  CB        35.9200   37.6010   30.5800 C.3   179  ARG179      0.0307
    111  CG        35.5000   37.7710   29.1000 C.3   179  ARG179      0.0489
    112  CD        34.0820   37.2960   28.7940 C.3   179  ARG179      0.2205
    113  NE        33.1050   37.7770   29.7750 N.pl3 179  ARG179     -0.0865
    114  CZ        32.6390   39.0260   29.8560 C.cat 179  ARG179      0.5346
    115  NH1       33.0520   39.9750   29.0150 N.pl3 179  ARG179      0.1354
    116  NH2       31.7560   39.3370   30.8030 N.pl3 179  ARG179      0.1354
    117  N         40.7230   40.9890   30.2030 N.3   182  LYS182     -0.1231
    118  CA        41.2000   40.4490   28.9330 C.3   182  LYS182      0.1693
    119  C         40.7080   41.2900   27.7490 C.2   182  LYS182      0.2591
    120  O         41.4730   41.6180   26.8480 O.2   182  LYS182     -0.2718
    121  CB        40.7300   38.9940   28.7940 C.3   182  LYS182      0.0285
    122  CG        41.1560   38.2670   27.5180 C.3   182  LYS182      0.0035
    123  CD        40.3070   37.0170   27.2860 C.3   182  LYS182      0.0206
    124  CE        38.8730   37.3690   26.8330 C.3   182  LYS182      0.1093
    125  NZ        38.0530   36.1790   26.4890 N.3   182  LYS182     -0.1314
    126  N         39.4330   41.6490   27.7610 N.am  183  GLU183     -0.1979
    127  CA        38.8680   42.4540   26.6860 C.3   183  GLU183      0.1602
    128  C         39.3230   43.9160   26.7730 C.2   183  GLU183      0.2287
    129  O         39.5680   44.5590   25.7490 O.2   183  GLU183     -0.2864
    130  CB        37.3400   42.3740   26.7080 C.3   183  GLU183      0.0415
    131  CG        36.7970   40.9530   26.5670 C.3   183  GLU183      0.1163
    132  CD        35.2960   40.8950   26.3400 C.2   183  GLU183      0.3649
    133  OE1       34.6420   41.9590   26.2750 O.co2 183  GLU183     -0.2457
    134  OE2       34.7680   39.7690   26.2250 O.co2 183  GLU183     -0.2457
@<TRIPOS>BOND
     1     8     7    2
     2    48    49    1
     3     7     6    1
     4    49    50    1
     5    49    52    1
     6     9     6    1
     7     9    10    1
     8    50    51    2
     9     6     5    1
    10     1     2    1
    11     5     3   am
    12    11    10    1
    13    52    53    1
    14    10    12    1
    15     3     2    1
    16     3     4    2
    17    53    54   ar
    18    53    55   ar
    19    66    64    1
    20   129   128    2
    21    56    57    1
    22    15    16    2
    23    15    14    1
    24   134   132   ar
    25   133   132   ar
    26    39    38    2
    27   132   131    1
    28    13    14    1
    29    13    19    1
    30   125   124    1
    31    38    37    1
    32   131   130    1
    33    14    17    1
    34    64    63    2
    35    64    65    1
    36   127   130    1
    37   127   128    1
    38   127   126    1
    39   124   123    1
    40   120   119    2
    41    60    57    1
    42    60    61    1
    43    57    58    1
    44    63    62    1
    45    40    37    1
    46    40    41    1
    47   123   122    1
    48    37    36    1
    49    20    21    1
    50   122   121    1
    51    58    59    2
    52    43    41   ar
    53    43    45   ar
    54    19    18    1
    55   119   126   am
    56   119   118    1
    57    41    42   ar
    58    17    18    1
    59    62    61    1
    60    45    46   ar
    61    67    68    1
    62    21    22    1
    63    21    24    1
    64    23    22    2
    65   112   111    1
    66   112   113    1
    67   121   118    1
    68    72    71    1
    69   118   117    1
    70   115   114    1
    71   111   110    1
    72    42    44   ar
    73   109   108    2
    74    26    24    1
    75    46    44   ar
    76    46    47    1
    77   113   114    2
    78    68    71    1
    79    68    69    1
    80   114   116    1
    81    24    25    1
    82    71    73    1
    83    25    27    1
    84   110   107    1
    85   108   107    1
    86   107   106    1
    87    69    70    2
    88   104   103   ar
    89    95    94    1
    90    96    94    1
    91    94    93    2
    92   105   103   ar
    93   103   102    1
    94    30    31    2
    95    30    29    1
    96    93    92    1
    97   100    99    2
    98    92    91    1
    99    89    88    2
   100    91    90    1
   101    32    29    1
   102    32    33    1
   103    98    99    1
   104    98   101    1
   105    98    97    1
   106    29    28    1
   107    34    33    1
   108   102   101    1
   109    35    33    1
   110    88    97   am
   111    88    87    1
   112    90    87    1
   113    87    86    1
   114    77    76    2
   115    80    78    1
   116    78    75    1
   117    78    79    1
   118    76    75    1
   119    76    81   am
   120    75    74    1
   121    84    83    2
   122    83    82    1
   123    81    82    1
   124    82    85    1
