@<TRIPOS>MOLECULE
tmp/2q32B00.pdb
 231 222 0 0 0
SMALL
GASTEIGER

@<TRIPOS>ATOM
      1  N         55.4680    9.7070   18.0100 N.3    15  HIS15      -0.1241
      2  CA        56.2910    9.8260   19.2150 C.3    15  HIS15       0.1621
      3  C         57.6800   10.3980   18.8970 C.2    15  HIS15       0.2264
      4  O         58.2110   11.2260   19.6450 O.2    15  HIS15      -0.2867
      5  CB        56.4550    8.4330   19.8320 C.3    15  HIS15       0.0745
      6  CG        56.3010    8.3990   21.3160 C.ar   15  HIS15       0.0817
      7  ND1       57.3790    8.3480   22.1770 N.ar   15  HIS15      -0.2268
      8  CD2       55.1920    8.3890   22.0940 C.ar   15  HIS15       0.1154
      9  CE1       56.9370    8.3190   23.4230 C.ar   15  HIS15       0.1986
     10  NE2       55.6140    8.3500   23.4010 N.ar   15  HIS15      -0.2212
     11  N         57.6910   14.1970   17.9300 N.3    18  ALA18      -0.1231
     12  CA        57.5510   15.0190   19.1250 C.3    18  ALA18       0.1694
     13  C         58.9160   15.2910   19.7470 C.2    18  ALA18       0.2591
     14  O         59.2240   16.4290   20.1070 O.2    18  ALA18      -0.2718
     15  CB        56.6250   14.3310   20.1360 C.3    18  ALA18       0.0304
     16  N         59.7290   14.2360   19.8440 N.am   19  GLU19      -0.1979
     17  CA        61.0560   14.2870   20.4640 C.3    19  GLU19       0.1602
     18  C         62.0630   15.1010   19.6580 C.2    19  GLU19       0.2287
     19  O         63.0050   15.6640   20.2210 O.2    19  GLU19      -0.2864
     20  CB        61.6070   12.8720   20.6660 C.3    19  GLU19       0.0415
     21  CG        60.8310   12.0180   21.6660 C.3    19  GLU19       0.1163
     22  CD        61.6450   10.8340   22.1780 C.2    19  GLU19       0.3649
     23  OE1       62.6170   10.4310   21.5000 O.co2  19  GLU19      -0.2457
     24  OE2       61.3140   10.3060   23.2630 O.co2  19  GLU19      -0.2457
     25  N         61.4710   22.9260   19.9450 N.3    23  PHE23      -0.1227
     26  CA        61.1960   23.2470   21.3430 C.3    23  PHE23       0.1736
     27  C         61.8080   22.2090   22.2890 C.2    23  PHE23       0.2595
     28  O         62.5830   22.5700   23.1850 O.2    23  PHE23      -0.2718
     29  CB        59.6860   23.3880   21.6070 C.3    23  PHE23       0.0547
     30  CG        59.3600   23.8600   23.0030 C.ar   23  PHE23      -0.0202
     31  CD1       59.3950   25.2150   23.3200 C.ar   23  PHE23      -0.0042
     32  CD2       59.0350   22.9490   24.0070 C.ar   23  PHE23      -0.0042
     33  CE1       59.1040   25.6560   24.6120 C.ar   23  PHE23      -0.0003
     34  CE2       58.7450   23.3820   25.3090 C.ar   23  PHE23      -0.0003
     35  CZ        58.7810   24.7410   25.6060 C.ar   23  PHE23      -0.0000
     36  N         61.4600   20.9310   22.0790 N.am   24  VAL24      -0.1980
     37  CA        61.9520   19.8190   22.9190 C.3    24  VAL24       0.1595
     38  C         63.4790   19.7230   22.9260 C.2    24  VAL24       0.2287
     39  O         64.0870   19.5500   23.9860 O.2    24  VAL24      -0.2864
     40  CB        61.3150   18.4490   22.5270 C.3    24  VAL24       0.0276
     41  CG1       61.8530   17.3090   23.3990 C.3    24  VAL24       0.0022
     42  CG2       59.8080   18.5200   22.6450 C.3    24  VAL24       0.0022
     43  N         64.8400   22.7740   24.9460 N.3    27  PHE27      -0.1227
     44  CA        64.5120   22.5140   26.3490 C.3    27  PHE27       0.1736
     45  C         65.5560   21.5800   26.9720 C.2    27  PHE27       0.2595
     46  O         66.3090   21.9820   27.8700 O.2    27  PHE27      -0.2718
     47  CB        63.1110   21.8990   26.4540 C.3    27  PHE27       0.0547
     48  CG        62.5950   21.7810   27.8640 C.ar   27  PHE27      -0.0202
     49  CD1       61.6510   22.6830   28.3460 C.ar   27  PHE27      -0.0042
     50  CD2       63.0400   20.7590   28.7060 C.ar   27  PHE27      -0.0042
     51  CE1       61.1630   22.5780   29.6470 C.ar   27  PHE27      -0.0003
     52  CE2       62.5610   20.6470   30.0120 C.ar   27  PHE27      -0.0003
     53  CZ        61.6210   21.5570   30.4820 C.ar   27  PHE27      -0.0000
     54  N         65.5940   20.3440   26.4680 N.am   28  LEU28      -0.1980
     55  CA        66.5690   19.3230   26.8700 C.3    28  LEU28       0.1596
     56  C         68.0080   19.8270   26.8840 C.2    28  LEU28       0.2287
     57  O         68.7740   19.4980   27.7900 O.2    28  LEU28      -0.2864
     58  CB        66.4620   18.1000   25.9470 C.3    28  LEU28       0.0297
     59  CG        65.4600   16.9730   26.2390 C.3    28  LEU28       0.0022
     60  CD1       64.0920   17.4840   26.6760 C.3    28  LEU28       0.0001
     61  CD2       65.3210   16.0770   25.0100 C.3    28  LEU28       0.0001
     62  N         54.4920   27.5760   27.9570 N.3    40  ALA40      -0.1245
     63  CA        54.3070   26.1190   28.0120 C.3    40  ALA40       0.1562
     64  C         53.5030   25.6540   29.2310 C.2    40  ALA40       0.2260
     65  O         52.6500   24.7700   29.1090 O.2    40  ALA40      -0.2867
     66  CB        55.6500   25.4110   27.9740 C.3    40  ALA40       0.0290
     67  N         49.9120   26.4470   28.5960 N.3    43  ALA43      -0.1231
     68  CA        49.3350   25.4200   27.7500 C.3    43  ALA43       0.1694
     69  C         49.0310   24.1590   28.5800 C.2    43  ALA43       0.2591
     70  O         47.9660   23.5530   28.4160 O.2    43  ALA43      -0.2718
     71  CB        50.2450   25.1150   26.5680 C.3    43  ALA43       0.0304
     72  N         49.9400   23.7820   29.4810 N.am   44  LEU44      -0.1980
     73  CA        49.7320   22.5810   30.3170 C.3    44  LEU44       0.1596
     74  C         48.5400   22.7130   31.2640 C.2    44  LEU44       0.2287
     75  O         47.7200   21.7980   31.3690 O.2    44  LEU44      -0.2864
     76  CB        50.9960   22.1930   31.0990 C.3    44  LEU44       0.0297
     77  CG        52.1960   21.6430   30.3120 C.3    44  LEU44       0.0022
     78  CD1       53.4190   21.5110   31.2070 C.3    44  LEU44       0.0001
     79  CD2       51.8770   20.3070   29.6440 C.3    44  LEU44       0.0001
     80  N         45.0810   22.4220   29.3180 N.3    47  THR47      -0.1218
     81  CA        45.0580   21.0270   28.8480 C.3    47  THR47       0.1862
     82  C         44.7000   20.0220   29.9470 C.2    47  THR47       0.2287
     83  O         43.7820   19.2240   29.7670 O.2    47  THR47      -0.2866
     84  CB        46.4160   20.6480   28.2330 C.3    47  THR47       0.1770
     85  OG1       46.6190   21.4280   27.0540 O.3    47  THR47      -0.2211
     86  CG2       46.4700   19.1840   27.8740 C.3    47  THR47       0.0375
     87  N         42.9150   21.7680   21.5180 N.3   104  TYR104     -0.1241
     88  CA        43.0620   20.4600   22.1260 C.3   104  TYR104      0.1605
     89  C         42.0770   20.2870   23.2820 C.2   104  TYR104      0.2264
     90  O         41.4720   19.2370   23.4180 O.2   104  TYR104     -0.2867
     91  CB        44.5090   20.2110   22.5610 C.3   104  TYR104      0.0534
     92  CG        44.7610   18.8340   23.1630 C.ar  104  TYR104     -0.0201
     93  CD1       44.4400   17.6660   22.4650 C.ar  104  TYR104     -0.0009
     94  CD2       45.3390   18.7000   24.4220 C.ar  104  TYR104     -0.0009
     95  CE1       44.6830   16.4110   23.0040 C.ar  104  TYR104      0.0417
     96  CE2       45.5890   17.4410   24.9730 C.ar  104  TYR104      0.0417
     97  CZ        45.2590   16.3020   24.2590 C.ar  104  TYR104      0.1957
     98  OH        45.4920   15.0590   24.8070 O.3   104  TYR104     -0.2866
     99  N         48.6730    8.5310   26.6400 N.3   125  THR125     -0.1203
    100  CA        49.7630    9.2450   25.9790 C.3   125  THR125      0.1994
    101  C         50.3820   10.3030   26.9050 C.2   125  THR125      0.2617
    102  O         51.6090   10.4220   26.9950 O.2   125  THR125     -0.2717
    103  CB        49.2980    9.9200   24.6770 C.3   125  THR125      0.1784
    104  OG1       48.1140   10.6740   24.9390 O.3   125  THR125     -0.2211
    105  CG2       48.9940    8.8910   23.6050 C.3   125  THR125      0.0376
    106  N         49.5210   11.0480   27.5990 N.am  126  ARG126     -0.1979
    107  CA        49.9320   12.1200   28.4960 C.3   126  ARG126      0.1597
    108  C         50.6160   11.6320   29.7790 C.2   126  ARG126      0.2287
    109  O         51.7820   11.9400   30.0080 O.2   126  ARG126     -0.2864
    110  CB        48.7200   13.0020   28.8340 C.3   126  ARG126      0.0334
    111  CG        48.3660   14.0250   27.7550 C.3   126  ARG126      0.0492
    112  CD        49.1780   15.2990   27.9360 C.3   126  ARG126      0.2205
    113  NE        50.3060   15.3750   27.0140 N.pl3 126  ARG126     -0.0865
    114  CZ        51.4700   15.9690   27.2770 C.cat 126  ARG126      0.5346
    115  NH1       51.7000   16.5250   28.4640 N.pl3 126  ARG126      0.1354
    116  NH2       52.4180   15.9910   26.3460 N.pl3 126  ARG126      0.1354
    117  N         53.8300    9.3930   29.6990 N.3   129  GLY129     -0.1210
    118  CA        54.9390   10.2600   29.3140 C.3   129  GLY129      0.1956
    119  C         55.4520   11.1010   30.4770 C.2   129  GLY129      0.2611
    120  O         56.6540   11.1080   30.7630 O.2   129  GLY129     -0.2717
    121  N         54.5300   11.7970   31.1450 N.am  130  ASP130     -0.1973
    122  CA        54.8390   12.6640   32.2870 C.3   130  ASP130      0.1709
    123  C         55.5690   11.9280   33.3930 C.2   130  ASP130      0.2293
    124  O         56.5220   12.4420   33.9780 O.2   130  ASP130     -0.2864
    125  CB        53.5530   13.2230   32.8880 C.3   130  ASP130      0.1436
    126  CG        52.8200   14.1580   31.9580 C.2   130  ASP130      0.3671
    127  OD1       53.4030   14.6240   30.9520 O.co2 130  ASP130     -0.2456
    128  OD2       51.6360   14.4310   32.2580 O.co2 130  ASP130     -0.2456
    129  N         57.2750    9.0580   33.1780 N.3   132  SER132     -0.1202
    130  CA        58.5940    8.5790   32.7400 C.3   132  SER132      0.2020
    131  C         59.6540    9.6820   32.7840 C.2   132  SER132      0.2619
    132  O         60.7620    9.4610   33.2900 O.2   132  SER132     -0.2717
    133  CB        58.5300    7.9890   31.3230 C.3   132  SER132      0.2103
    134  OG        57.5120    7.0060   31.1990 O.3   132  SER132     -0.2182
    135  N         59.3080   10.8640   32.2650 N.am  133  GLY133     -0.1942
    136  CA        60.2760   11.9550   32.0960 C.3   133  GLY133      0.2014
    137  C         60.3090   13.0810   33.1180 C.2   133  GLY133      0.2639
    138  O         61.0800   14.0290   32.9660 O.2   133  GLY133     -0.2714
    139  N         59.4900   12.9760   34.1620 N.am  134  GLY134     -0.1954
    140  CA        59.4340   13.9770   35.2290 C.3   134  GLY134      0.1869
    141  C         60.7700   14.2640   35.8970 C.2   134  GLY134      0.2309
    142  O         61.1980   15.4170   35.9610 O.2   134  GLY134     -0.2863
    143  N         63.7890   13.9780   35.0240 N.3   136  VAL136     -0.1231
    144  CA        64.8140   14.6040   34.1820 C.3   136  VAL136      0.1692
    145  C         64.4620   16.0650   33.8600 C.2   136  VAL136      0.2591
    146  O         65.2840   16.9680   34.0610 O.2   136  VAL136     -0.2718
    147  CB        65.0880   13.7680   32.8880 C.3   136  VAL136      0.0266
    148  CG1       65.8860   14.5670   31.8580 C.3   136  VAL136      0.0020
    149  CG2       65.8300   12.4760   33.2350 C.3   136  VAL136      0.0020
    150  N         63.2380   16.2860   33.3840 N.am  137  LEU137     -0.1980
    151  CA        62.7700   17.6110   32.9690 C.3   137  LEU137      0.1596
    152  C         62.6900   18.6220   34.1100 C.2   137  LEU137      0.2287
    153  O         62.9320   19.8180   33.9060 O.2   137  LEU137     -0.2864
    154  CB        61.4040   17.5010   32.2950 C.3   137  LEU137      0.0297
    155  CG        61.2570   16.5410   31.1160 C.3   137  LEU137      0.0022
    156  CD1       59.8700   16.6890   30.5700 C.3   137  LEU137      0.0001
    157  CD2       62.3070   16.7860   30.0290 C.3   137  LEU137      0.0001
    158  N         54.4150   20.4820   38.5970 N.3   156  PHE156     -0.1227
    159  CA        53.8890   19.6300   37.5290 C.3   156  PHE156      0.1736
    160  C         54.7460   18.3820   37.2560 C.2   156  PHE156      0.2595
    161  O         54.2120   17.3320   36.9240 O.2   156  PHE156     -0.2718
    162  CB        53.7340   20.4530   36.2430 C.3   156  PHE156      0.0547
    163  CG        53.4170   19.6280   35.0240 C.ar  156  PHE156     -0.0202
    164  CD1       52.1240   19.1990   34.7750 C.ar  156  PHE156     -0.0042
    165  CD2       54.4200   19.2800   34.1250 C.ar  156  PHE156     -0.0042
    166  CE1       51.8360   18.4380   33.6570 C.ar  156  PHE156     -0.0003
    167  CE2       54.1350   18.4960   33.0060 C.ar  156  PHE156     -0.0003
    168  CZ        52.8480   18.0820   32.7760 C.ar  156  PHE156     -0.0000
    169  N         56.0650   18.5180   37.3850 N.am  157  TYR157     -0.1976
    170  CA        57.0180   17.4550   37.0380 C.3   157  TYR157      0.1639
    171  C         57.3060   16.4900   38.1940 C.2   157  TYR157      0.2290
    172  O         58.0170   15.4930   38.0150 O.2   157  TYR157     -0.2864
    173  CB        58.3270   18.0640   36.4990 C.3   157  TYR157      0.0560
    174  CG        58.0990   18.9690   35.3190 C.ar  157  TYR157     -0.0198
    175  CD1       57.8630   18.4380   34.0520 C.ar  157  TYR157     -0.0009
    176  CD2       58.0910   20.3550   35.4680 C.ar  157  TYR157     -0.0009
    177  CE1       57.6310   19.2640   32.9510 C.ar  157  TYR157      0.0417
    178  CE2       57.8580   21.1990   34.3700 C.ar  157  TYR157      0.0417
    179  CZ        57.6220   20.6440   33.1100 C.ar  157  TYR157      0.1957
    180  OH        57.3740   21.4600   32.0120 O.3   157  TYR157     -0.2866
    181  N         45.9330   13.0770   19.1870 N.3   196  ALA196     -0.1231
    182  CA        46.4820   13.7720   20.3480 C.3   196  ALA196      0.1694
    183  C         47.9030   14.3060   20.0770 C.2   196  ALA196      0.2592
    184  O         48.2420   15.4140   20.5060 O.2   196  ALA196     -0.2718
    185  CB        46.4540   12.8640   21.5530 C.3   196  ALA196      0.0304
    186  N         48.6950   13.5360   19.3200 N.am  197  PHE197     -0.1976
    187  CA        50.0680   13.9070   18.9640 C.3   197  PHE197      0.1639
    188  C         50.1220   15.0170   17.9160 C.2   197  PHE197      0.2290
    189  O         51.0720   15.8040   17.8620 O.2   197  PHE197     -0.2864
    190  CB        50.8360   12.6900   18.4540 C.3   197  PHE197      0.0560
    191  CG        51.4350   11.8530   19.5360 C.ar  197  PHE197     -0.0200
    192  CD1       50.7730   10.7180   20.0010 C.ar  197  PHE197     -0.0042
    193  CD2       52.6730   12.1890   20.0890 C.ar  197  PHE197     -0.0042
    194  CE1       51.3310    9.9160   21.0040 C.ar  197  PHE197     -0.0003
    195  CE2       53.2490   11.3980   21.1040 C.ar  197  PHE197     -0.0003
    196  CZ        52.5690   10.2590   21.5670 C.ar  197  PHE197     -0.0000
    197  N         49.4400   17.9290   19.9770 N.3   200  ASN200     -0.1240
    198  CA        50.7370   18.1110   20.6070 C.3   200  ASN200      0.1653
    199  C         51.7250   18.8870   19.7220 C.2   200  ASN200      0.2266
    200  O         52.3560   19.8460   20.1800 O.2   200  ASN200     -0.2867
    201  CB        51.2970   16.7340   20.9820 C.3   200  ASN200      0.1155
    202  CG        52.4900   16.8150   21.8930 C.2   200  ASN200      0.2627
    203  OD1       53.6200   16.5710   21.4640 O.2   200  ASN200     -0.2716
    204  ND2       52.2550   17.1500   23.1600 N.am  200  ASN200     -0.0877
    205  N         50.6810   22.6000   19.3990 N.3   203  ILE203     -0.1231
    206  CA        51.1160   23.3010   20.6110 C.3   203  ILE203      0.1692
    207  C         52.6300   23.6100   20.5970 C.2   203  ILE203      0.2592
    208  O         53.0370   24.7250   20.9450 O.2   203  ILE203     -0.2718
    209  CB        50.6970   22.5460   21.8940 C.3   203  ILE203      0.0266
    210  CG1       49.1640   22.3790   21.9200 C.3   203  ILE203      0.0019
    211  CG2       51.2100   23.2850   23.1390 C.3   203  ILE203      0.0020
    212  CD1       48.6140   21.4340   22.9690 C.3   203  ILE203      0.0001
    213  N         53.4460   22.6420   20.1740 N.am  204  PHE204     -0.1976
    214  CA        54.8980   22.8640   20.0240 C.3   204  PHE204      0.1639
    215  C         55.2440   23.8570   18.9330 C.2   204  PHE204      0.2290
    216  O         56.1380   24.6820   19.1180 O.2   204  PHE204     -0.2864
    217  CB        55.6720   21.5610   19.7990 C.3   204  PHE204      0.0560
    218  CG        55.8060   20.7250   21.0310 C.ar  204  PHE204     -0.0200
    219  CD1       56.2050   21.2970   22.2370 C.ar  204  PHE204     -0.0042
    220  CD2       55.5330   19.3620   20.9940 C.ar  204  PHE204     -0.0042
    221  CE1       56.3240   20.5250   23.3800 C.ar  204  PHE204     -0.0003
    222  CE2       55.6580   18.5870   22.1350 C.ar  204  PHE204     -0.0003
    223  CZ        56.0480   19.1680   23.3260 C.ar  204  PHE204     -0.0000
    224  N         54.5750   27.3430   20.2140 N.3   207  LEU207     -0.1245
    225  CA        55.6240   27.7480   21.1490 C.3   207  LEU207      0.1561
    226  C         56.9200   28.0890   20.4250 C.2   207  LEU207      0.2260
    227  O         57.6840   28.9400   20.8770 O.2   207  LEU207     -0.2867
    228  CB        55.8880   26.6490   22.1780 C.3   207  LEU207      0.0270
    229  CG        54.8160   26.3990   23.2390 C.3   207  LEU207      0.0019
    230  CD1       55.0710   25.0790   23.9630 C.3   207  LEU207      0.0001
    231  CD2       54.7580   27.5590   24.2260 C.3   207  LEU207      0.0001
@<TRIPOS>BOND
     1   189   188    2
     2   188   187    1
     3    11    12    1
     4     1     2    1
     5   190   187    1
     6   190   191    1
     7     3     2    1
     8     3     4    2
     9   215   216    2
    10   215   214    1
    11   187   186    1
    12    12    13    1
    13    12    15    1
    14   181   182    1
    15     2     5    1
    16   186   183   am
    17   205   206    1
    18   191   192   ar
    19   191   193   ar
    20    18    19    2
    21    18    17    1
    22   199   200    2
    23   199   198    1
    24    13    16   am
    25    13    14    2
    26   217   214    1
    27   217   218    1
    28     5     6    1
    29    16    17    1
    30    25    26    1
    31   197   198    1
    32   192   194   ar
    33   214   213    1
    34   183   182    1
    35   183   184    2
    36   193   195   ar
    37   213   207   am
    38   224   225    1
    39   182   185    1
    40   226   227    2
    41   226   225    1
    42    17    20    1
    43   207   206    1
    44   207   208    2
    45   198   201    1
    46   206   209    1
    47    20    21    1
    48   201   202    1
    49   220   218   ar
    50   220   222   ar
    51   194   196   ar
    52   218   219   ar
    53   195   196   ar
    54   225   228    1
    55     6     8   ar
    56     6     7   ar
    57    26    29    1
    58    26    27    1
    59   203   202    2
    60    23    22   ar
    61    87    88    1
    62    29    30    1
    63    21    22    1
    64   202   204   am
    65   209   210    1
    66   209   211    1
    67   210   212    1
    68    36    27   am
    69    36    37    1
    70     8    10   ar
    71    88    91    1
    72    88    89    1
    73   222   223   ar
    74     7     9   ar
    75   228   229    1
    76    22    24   ar
    77   219   221   ar
    78    27    28    2
    79    93    95   ar
    80    93    92   ar
    81    40    42    1
    82    40    37    1
    83    40    41    1
    84    91    92    1
    85    37    38    1
    86    38    39    2
    87    30    31   ar
    88    30    32   ar
    89    95    97   ar
    90    92    94   ar
    91   229   230    1
    92   229   231    1
    93    89    90    2
    94    31    33   ar
    95   223   221   ar
    96    10     9   ar
    97   105   103    1
    98    32    34   ar
    99    97    98    1
   100    97    96   ar
   101    94    96   ar
   102    33    35   ar
   103   103   104    1
   104   103   100    1
   105    43    44    1
   106    61    59    1
   107    34    35   ar
   108    58    59    1
   109    58    55    1
   110   100    99    1
   111   100   101    1
   112    59    60    1
   113   116   114    1
   114    44    47    1
   115    44    45    1
   116    47    48    1
   117    54    55    1
   118    54    45   am
   119    71    68    1
   120    55    56    1
   121    56    57    2
   122   101   102    2
   123   101   106   am
   124    45    46    2
   125   113   114    2
   126   113   112    1
   127    85    84    1
   128   114   115    1
   129   106   107    1
   130    68    69    1
   131    68    67    1
   132   111   112    1
   133   111   110    1
   134    48    49   ar
   135    48    50   ar
   136    86    84    1
   137    62    63    1
   138    66    63    1
   139    63    64    1
   140    84    81    1
   141    49    51   ar
   142    70    69    2
   143   107   110    1
   144   107   108    1
   145    69    72   am
   146    50    52   ar
   147    81    80    1
   148    81    82    1
   149    65    64    2
   150   118   117    1
   151   118   119    1
   152    72    73    1
   153    79    77    1
   154    51    53   ar
   155    83    82    2
   156   108   109    2
   157    52    53   ar
   158   157   155    1
   159    77    76    1
   160    77    78    1
   161    73    76    1
   162    73    74    1
   163   119   120    2
   164   119   121   am
   165   156   155    1
   166   127   126   ar
   167   155   154    1
   168   121   122    1
   169   134   133    1
   170    74    75    2
   171   133   130    1
   172   148   147    1
   173   126   128   ar
   174   126   125    1
   175   180   179    1
   176   136   135    1
   177   136   137    1
   178   135   131   am
   179   122   125    1
   180   122   123    1
   181   154   151    1
   182   130   131    1
   183   130   129    1
   184   168   167   ar
   185   168   166   ar
   186   131   132    2
   187   147   149    1
   188   147   144    1
   189   177   179   ar
   190   177   175   ar
   191   138   137    2
   192   151   150    1
   193   151   152    1
   194   167   165   ar
   195   179   178   ar
   196   137   139   am
   197   150   145   am
   198   123   124    2
   199   166   164   ar
   200   145   146    2
   201   145   144    1
   202   153   152    2
   203   175   174   ar
   204   165   163   ar
   205   139   140    1
   206   144   143    1
   207   178   176   ar
   208   164   163   ar
   209   163   162    1
   210   140   141    1
   211   174   176   ar
   212   174   173    1
   213   141   142    2
   214   162   159    1
   215   173   170    1
   216   161   160    2
   217   170   169    1
   218   170   171    1
   219   160   169   am
   220   160   159    1
   221   159   158    1
   222   172   171    2
