@<TRIPOS>MOLECULE
tmp/2q32A00.pdb
 246 238 0 0 0
SMALL
GASTEIGER

@<TRIPOS>ATOM
      1  N         27.4220   22.8110   20.5030 N.3    17  HIS17      -0.1241
      2  CA        27.0440   24.0560   19.8170 C.3    17  HIS17       0.1621
      3  C         27.8200   25.2590   20.3650 C.2    17  HIS17       0.2264
      4  O         28.2490   26.1510   19.6310 O.2    17  HIS17      -0.2867
      5  CB        25.5350   24.3030   19.9350 C.3    17  HIS17       0.0745
      6  CG        25.0830   25.5450   19.2360 C.ar   17  HIS17       0.0817
      7  ND1       24.8710   26.7350   19.8980 N.ar   17  HIS17      -0.2268
      8  CD2       24.8340   25.7890   17.9270 C.ar   17  HIS17       0.1154
      9  CE1       24.4890   27.6550   19.0300 C.ar   17  HIS17       0.1986
     10  NE2       24.4570   27.1060   17.8270 N.ar   17  HIS17      -0.2212
     11  N         31.4650   25.1720   18.9730 N.3    20  ALA20      -0.1231
     12  CA        31.5190   25.5910   17.5730 C.3    20  ALA20       0.1694
     13  C         31.3370   27.1090   17.3900 C.2    20  ALA20       0.2591
     14  O         32.0080   27.7300   16.5640 O.2    20  ALA20      -0.2718
     15  CB        30.4900   24.8140   16.7590 C.3    20  ALA20       0.0304
     16  N         30.4430   27.6990   18.1750 N.am   21  GLU21      -0.1979
     17  CA        30.2730   29.1440   18.1790 C.3    21  GLU21       0.1602
     18  C         31.5550   29.8730   18.5770 C.2    21  GLU21       0.2287
     19  O         31.9000   30.9190   18.0050 O.2    21  GLU21      -0.2864
     20  CB        29.1670   29.5450   19.1560 C.3    21  GLU21       0.0415
     21  CG        27.7750   29.6060   18.5690 C.3    21  GLU21       0.1163
     22  CD        26.9240   30.6320   19.2910 C.2    21  GLU21       0.3649
     23  OE1       27.3330   31.0900   20.3890 O.co2  21  GLU21      -0.2457
     24  OE2       25.8500   30.9920   18.7610 O.co2  21  GLU21      -0.2457
     25  N         38.3800   29.5380   14.5070 N.3    25  PHE25      -0.1227
     26  CA        38.1960   29.6740   13.0740 C.3    25  PHE25       0.1736
     27  C         36.8900   30.3970   12.6920 C.2    25  PHE25       0.2595
     28  O         36.8410   31.1340   11.6970 O.2    25  PHE25      -0.2718
     29  CB        38.2920   28.3180   12.3670 C.3    25  PHE25       0.0547
     30  CG        38.0680   28.4100   10.8760 C.ar   25  PHE25      -0.0202
     31  CD1       39.1210   28.7390   10.0220 C.ar   25  PHE25      -0.0042
     32  CD2       36.8030   28.2260   10.3370 C.ar   25  PHE25      -0.0042
     33  CE1       38.9190   28.8440    8.6510 C.ar   25  PHE25      -0.0003
     34  CE2       36.5870   28.3520    8.9680 C.ar   25  PHE25      -0.0003
     35  CZ        37.6530   28.6590    8.1210 C.ar   25  PHE25      -0.0000
     36  N         35.8370   30.1390   13.4560 N.am   26  VAL26      -0.1980
     37  CA        34.5360   30.7660   13.2560 C.3    26  VAL26       0.1595
     38  C         34.6460   32.2630   13.5670 C.2    26  VAL26       0.2287
     39  O         34.2360   33.1100   12.7730 O.2    26  VAL26      -0.2864
     40  CB        33.4430   30.0730   14.1470 C.3    26  VAL26       0.0276
     41  CG1       32.1380   30.8690   14.1840 C.3    26  VAL26       0.0022
     42  CG2       33.2030   28.6240   13.6590 C.3    26  VAL26       0.0022
     43  N         36.6010   34.1880   10.9920 N.3    29  PHE29      -0.1227
     44  CA        35.7580   34.4210    9.8380 C.3    29  PHE29       0.1736
     45  C         34.8260   35.5920   10.1120 C.2    29  PHE29       0.2595
     46  O         34.7790   36.5400    9.3230 O.2    29  PHE29      -0.2718
     47  CB        34.9510   33.1800    9.4330 C.3    29  PHE29       0.0547
     48  CG        33.9540   33.4680    8.3490 C.ar   29  PHE29      -0.0202
     49  CD1       34.3110   33.3490    7.0100 C.ar   29  PHE29      -0.0042
     50  CD2       32.6790   33.9280    8.6600 C.ar   29  PHE29      -0.0042
     51  CE1       33.3930   33.6650    6.0000 C.ar   29  PHE29      -0.0003
     52  CE2       31.7740   34.2230    7.6650 C.ar   29  PHE29      -0.0003
     53  CZ        32.1310   34.0970    6.3310 C.ar   29  PHE29      -0.0000
     54  N         34.1100   35.5330   11.2360 N.am   30  LEU30      -0.1980
     55  CA        33.1740   36.6000   11.6260 C.3    30  LEU30       0.1596
     56  C         33.8160   37.9820   11.6940 C.2    30  LEU30       0.2287
     57  O         33.1590   38.9700   11.3880 O.2    30  LEU30      -0.2864
     58  CB        32.4340   36.2630   12.9300 C.3    30  LEU30       0.0297
     59  CG        31.4180   35.1050   12.8780 C.3    30  LEU30       0.0022
     60  CD1       31.0710   34.6050   14.2700 C.3    30  LEU30       0.0001
     61  CD2       30.1490   35.4800   12.1270 C.3    30  LEU30       0.0001
     62  N         39.2160   30.8620    2.0950 N.3    39  PHE39      -0.1241
     63  CA        37.7790   30.8210    1.8160 C.3    39  PHE39       0.1605
     64  C         37.4490   29.8170    0.7310 C.2    39  PHE39       0.2264
     65  O         36.4780   29.0690    0.8320 O.2    39  PHE39      -0.2867
     66  CB        37.2550   32.2010    1.4040 C.3    39  PHE39       0.0534
     67  CG        35.7390   32.2950    1.3640 C.ar   39  PHE39      -0.0203
     68  CD1       34.9910   32.3040    2.5530 C.ar   39  PHE39      -0.0042
     69  CD2       35.0570   32.3760    0.1390 C.ar   39  PHE39      -0.0042
     70  CE1       33.5910   32.3850    2.5170 C.ar   39  PHE39      -0.0003
     71  CE2       33.6580   32.4630    0.1000 C.ar   39  PHE39      -0.0003
     72  CZ        32.9300   32.4660    1.2890 C.ar   39  PHE39      -0.0000
     73  N         37.8080   26.4920    2.3100 N.3    42  ALA42      -0.1245
     74  CA        36.5930   26.2790    3.0930 C.3    42  ALA42       0.1562
     75  C         35.3710   25.9120    2.2290 C.2    42  ALA42       0.2260
     76  O         34.6080   25.0180    2.5880 O.2    42  ALA42      -0.2867
     77  CB        36.2970   27.5070    3.9470 C.3    42  ALA42       0.0290
     78  N         33.0080   22.5180    1.9600 N.3    46  LEU46      -0.1245
     79  CA        31.5390   22.5720    1.8650 C.3    46  LEU46       0.1561
     80  C         31.0010   21.7710    0.6830 C.2    46  LEU46       0.2260
     81  O         30.0560   21.0070    0.8290 O.2    46  LEU46      -0.2867
     82  CB        31.0100   24.0190    1.8220 C.3    46  LEU46       0.0270
     83  CG        31.2620   24.8720    3.0720 C.3    46  LEU46       0.0019
     84  CD1       30.7140   26.2760    2.8880 C.3    46  LEU46       0.0001
     85  CD2       30.6870   24.2250    4.3220 C.3    46  LEU46       0.0001
     86  N         31.2520   17.8280    1.4380 N.3    49  THR49      -0.1203
     87  CA        30.4350   17.3410    2.5510 C.3    49  THR49       0.1994
     88  C         28.9350   17.4300    2.2290 C.2    49  THR49       0.2617
     89  O         28.1920   16.4760    2.5050 O.2    49  THR49      -0.2717
     90  CB        30.7940   18.0200    3.8950 C.3    49  THR49       0.1784
     91  OG1       30.6180   19.4180    3.7630 O.3    49  THR49      -0.2211
     92  CG2       32.2520   17.7890    4.2290 C.3    49  THR49       0.0376
     93  N         28.4990   18.5410    1.6230 N.am   50  TYR50      -0.1975
     94  CA        27.0970   18.6740    1.1650 C.3    50  TYR50       0.1639
     95  C         26.7090   17.7130    0.0490 C.2    50  TYR50       0.2290
     96  O         25.5870   17.2130    0.0330 O.2    50  TYR50      -0.2864
     97  CB        26.7470   20.1130    0.7810 C.3    50  TYR50       0.0560
     98  CG        26.4880   21.0280    1.9730 C.ar   50  TYR50      -0.0198
     99  CD1       27.5460   21.6650    2.6250 C.ar   50  TYR50      -0.0009
    100  CD2       25.1980   21.2340    2.4520 C.ar   50  TYR50      -0.0009
    101  CE1       27.3370   22.4830    3.7170 C.ar   50  TYR50       0.0417
    102  CE2       24.9690   22.0530    3.5390 C.ar   50  TYR50       0.0417
    103  CZ        26.0490   22.6730    4.1590 C.ar   50  TYR50       0.1957
    104  OH        25.8380   23.5150    5.2040 O.3    50  TYR50      -0.2866
    105  N         26.0550   14.3840    1.9150 N.3    53  LEU53      -0.1245
    106  CA        24.8520   14.4690    2.7350 C.3    53  LEU53       0.1561
    107  C         23.5930   14.4510    1.8720 C.2    53  LEU53       0.2260
    108  O         22.6320   13.7450    2.1860 O.2    53  LEU53      -0.2867
    109  CB        24.8870   15.7150    3.6260 C.3    53  LEU53       0.0270
    110  CG        23.6560   16.1160    4.4700 C.3    53  LEU53       0.0019
    111  CD1       23.2560   15.0440    5.4970 C.3    53  LEU53       0.0001
    112  CD2       23.9060   17.4450    5.1690 C.3    53  LEU53       0.0001
    113  N         34.1440   13.0460    7.2920 N.3   106  TYR106     -0.1241
    114  CA        32.7190   13.3250    7.4600 C.3   106  TYR106      0.1605
    115  C         31.9100   12.6370    6.3610 C.2   106  TYR106      0.2264
    116  O         30.8860   12.0130    6.6360 O.2   106  TYR106     -0.2867
    117  CB        32.4040   14.8290    7.5130 C.3   106  TYR106      0.0534
    118  CG        30.9040   15.0830    7.5440 C.ar  106  TYR106     -0.0201
    119  CD1       30.2090   15.1350    8.7550 C.ar  106  TYR106     -0.0009
    120  CD2       30.1610   15.2060    6.3500 C.ar  106  TYR106     -0.0009
    121  CE1       28.8320   15.3410    8.7920 C.ar  106  TYR106      0.0417
    122  CE2       28.7640   15.3860    6.3720 C.ar  106  TYR106      0.0417
    123  CZ        28.1140   15.4610    7.5980 C.ar  106  TYR106      0.1957
    124  OH        26.7400   15.6570    7.6360 O.3   106  TYR106     -0.2866
    125  N         22.2260   14.7670   11.1060 N.3   124  HIS124     -0.1241
    126  CA        23.0910   15.5570   10.2440 C.3   124  HIS124      0.1621
    127  C         22.3750   16.7100    9.5580 C.2   124  HIS124      0.2264
    128  O         22.8970   17.8300    9.4970 O.2   124  HIS124     -0.2867
    129  CB        23.7680   14.6490    9.2160 C.3   124  HIS124      0.0745
    130  CG        24.7920   13.7430    9.8190 C.ar  124  HIS124      0.0817
    131  ND1       26.1400   14.0290    9.7990 N.ar  124  HIS124     -0.2268
    132  CD2       24.6640   12.5780   10.4970 C.ar  124  HIS124      0.1154
    133  CE1       26.8010   13.0680   10.4250 C.ar  124  HIS124      0.1986
    134  NE2       25.9290   12.1730   10.8540 N.ar  124  HIS124     -0.2212
    135  N         21.0450   19.6690   12.2610 N.3   127  THR127     -0.1203
    136  CA        22.1050   20.5360   12.7710 C.3   127  THR127      0.1994
    137  C         22.7610   21.3570   11.6540 C.2   127  THR127      0.2617
    138  O         23.0830   22.5210   11.8490 O.2   127  THR127     -0.2717
    139  CB        23.1630   19.7470   13.5690 C.3   127  THR127      0.1784
    140  OG1       23.8260   18.8140   12.7110 O.3   127  THR127     -0.2211
    141  CG2       22.5040   19.0020   14.7520 C.3   127  THR127      0.0376
    142  N         22.9320   20.7590   10.4830 N.am  128  ARG128     -0.1979
    143  CA        23.4430   21.4900    9.3430 C.3   128  ARG128      0.1597
    144  C         22.4800   22.5900    8.8230 C.2   128  ARG128      0.2287
    145  O         22.7310   23.7800    9.0110 O.2   128  ARG128     -0.2864
    146  CB        23.8480   20.5080    8.2350 C.3   128  ARG128      0.0334
    147  CG        24.6230   21.1210    7.0830 C.3   128  ARG128      0.0492
    148  CD        25.3060   22.4630    7.4560 C.3   128  ARG128      0.2205
    149  NE        26.3290   22.3190    8.4820 N.pl3 128  ARG128     -0.0865
    150  CZ        26.5990   23.2020    9.4490 C.cat 128  ARG128      0.5346
    151  NH1       25.9560   24.3760    9.5780 N.pl3 128  ARG128      0.1354
    152  NH2       27.5590   22.8880   10.2940 N.pl3 128  ARG128      0.1354
    153  N         21.1090   25.4990   11.0010 N.3   131  GLY131     -0.1210
    154  CA        22.2260   26.4260   11.1880 C.3   131  GLY131      0.1956
    155  C         22.4560   27.3430    9.9960 C.2   131  GLY131      0.2611
    156  O         22.5640   28.5660   10.1570 O.2   131  GLY131     -0.2717
    157  N         22.5200   26.7370    8.8060 N.am  132  ASP132     -0.1973
    158  CA        22.6670   27.4470    7.5330 C.3   132  ASP132      0.1709
    159  C         21.5990   28.5200    7.2910 C.2   132  ASP132      0.2293
    160  O         21.9040   29.6240    6.8300 O.2   132  ASP132     -0.2864
    161  CB        22.6390   26.4480    6.3610 C.3   132  ASP132      0.1436
    162  CG        23.8550   25.5580    6.3150 C.2   132  ASP132      0.3671
    163  OD1       24.8440   25.8390    7.0440 O.co2 132  ASP132     -0.2456
    164  OD2       23.8220   24.5650    5.5470 O.co2 132  ASP132     -0.2456
    165  N         26.6020   35.6860    7.4450 N.3   139  LEU139     -0.1245
    166  CA        27.7890   35.0640    6.8600 C.3   139  LEU139      0.1561
    167  C         28.0800   35.5560    5.4430 C.2   139  LEU139      0.2260
    168  O         29.2330   35.8020    5.1080 O.2   139  LEU139     -0.2867
    169  CB        27.7150   33.5240    6.9240 C.3   139  LEU139      0.0270
    170  CG        27.5930   32.8740    8.3170 C.3   139  LEU139      0.0019
    171  CD1       27.4230   31.3820    8.2420 C.3   139  LEU139      0.0001
    172  CD2       28.7450   33.2030    9.2330 C.3   139  LEU139      0.0001
    173  N         25.8180   29.9050   -1.8260 N.3   158  PHE158     -0.1227
    174  CA        25.6410   28.9590   -0.7390 C.3   158  PHE158      0.1736
    175  C         24.8440   29.5440    0.4390 C.2   158  PHE158      0.2595
    176  O         24.0560   28.8430    1.0850 O.2   158  PHE158     -0.2718
    177  CB        27.0020   28.4760   -0.2600 C.3   158  PHE158      0.0547
    178  CG        26.9460   27.6400    0.9880 C.ar  158  PHE158     -0.0202
    179  CD1       26.4520   26.3260    0.9450 C.ar  158  PHE158     -0.0042
    180  CD2       27.3790   28.1560    2.2080 C.ar  158  PHE158     -0.0042
    181  CE1       26.3810   25.5310    2.1030 C.ar  158  PHE158     -0.0003
    182  CE2       27.3010   27.3850    3.3730 C.ar  158  PHE158     -0.0003
    183  CZ        26.7900   26.0610    3.3120 C.ar  158  PHE158     -0.0000
    184  N         25.0520   30.8320    0.7000 N.am  159  TYR159     -0.1976
    185  CA        24.4820   31.4910    1.8700 C.3   159  TYR159      0.1639
    186  C         23.0600   31.9690    1.6140 C.2   159  TYR159      0.2290
    187  O         22.3860   32.4040    2.5480 O.2   159  TYR159     -0.2864
    188  CB        25.3790   32.6480    2.3400 C.3   159  TYR159      0.0560
    189  CG        26.7710   32.1610    2.6620 C.ar  159  TYR159     -0.0198
    190  CD1       27.0490   31.5300    3.8820 C.ar  159  TYR159     -0.0009
    191  CD2       27.7910   32.2830    1.7310 C.ar  159  TYR159     -0.0009
    192  CE1       28.3110   31.0420    4.1610 C.ar  159  TYR159      0.0417
    193  CE2       29.0530   31.8150    1.9960 C.ar  159  TYR159      0.0417
    194  CZ        29.3100   31.1930    3.2040 C.ar  159  TYR159      0.1957
    195  OH        30.5700   30.7230    3.4290 O.3   159  TYR159     -0.2866
    196  N         28.2070   14.7960   14.5360 N.3   198  ALA198     -0.1231
    197  CA        28.1050   15.7350   13.4230 C.3   198  ALA198      0.1694
    198  C         28.8020   17.0690   13.7230 C.2   198  ALA198      0.2592
    199  O         29.5860   17.5380   12.9010 O.2   198  ALA198     -0.2718
    200  CB        26.6310   15.9630   13.0270 C.3   198  ALA198      0.0304
    201  N         28.5220   17.6600   14.8880 N.am  199  PHE199     -0.1976
    202  CA        29.2240   18.8570   15.3430 C.3   199  PHE199      0.1639
    203  C         30.7460   18.6590   15.3540 C.2   199  PHE199      0.2290
    204  O         31.4950   19.4930   14.8400 O.2   199  PHE199     -0.2864
    205  CB        28.7690   19.2530   16.7460 C.3   199  PHE199      0.0560
    206  CG        27.5590   20.1460   16.7790 C.ar  199  PHE199     -0.0200
    207  CD1       26.2810   19.6110   16.9630 C.ar  199  PHE199     -0.0042
    208  CD2       27.6920   21.5380   16.6610 C.ar  199  PHE199     -0.0042
    209  CE1       25.1410   20.4480   17.0020 C.ar  199  PHE199     -0.0003
    210  CE2       26.5620   22.3830   16.7020 C.ar  199  PHE199     -0.0003
    211  CZ        25.2850   21.8260   16.8780 C.ar  199  PHE199     -0.0000
    212  N         32.6370   18.6960   12.1320 N.3   202  ASN202     -0.1240
    213  CA        32.8650   20.0970   11.7520 C.3   202  ASN202      0.1653
    214  C         34.0080   20.7910   12.4660 C.2   202  ASN202      0.2266
    215  O         34.8060   21.4630   11.8180 O.2   202  ASN202     -0.2867
    216  CB        31.5870   20.9210   11.8030 C.3   202  ASN202      0.1155
    217  CG        30.7560   20.7210   10.5770 C.2   202  ASN202      0.2627
    218  OD1       29.6110   21.1400   10.5220 O.2   202  ASN202     -0.2716
    219  ND2       31.3240   20.0570    9.5730 N.am  202  ASN202     -0.0877
    220  N         37.0180   19.7480   10.6730 N.3   205  ILE205     -0.1231
    221  CA        37.1520   20.5150    9.4440 C.3   205  ILE205      0.1692
    222  C         37.7250   21.9210    9.7260 C.2   205  ILE205      0.2592
    223  O         38.7020   22.3260    9.0960 O.2   205  ILE205     -0.2718
    224  CB        35.8210   20.5760    8.6730 C.3   205  ILE205      0.0266
    225  CG1       35.4430   19.1640    8.1800 C.3   205  ILE205      0.0019
    226  CG2       35.9230   21.6000    7.5080 C.3   205  ILE205      0.0020
    227  CD1       34.0220   19.0070    7.5880 C.3   205  ILE205      0.0001
    228  N         37.1470   22.6350   10.6960 N.am  206  PHE206     -0.1976
    229  CA        37.6480   23.9560   11.1050 C.3   206  PHE206      0.1639
    230  C         39.0780   23.8950   11.5800 C.2   206  PHE206      0.2290
    231  O         39.8480   24.7980   11.2800 O.2   206  PHE206     -0.2864
    232  CB        36.8070   24.5570   12.2330 C.3   206  PHE206      0.0560
    233  CG        35.3670   24.7880   11.8750 C.ar  206  PHE206     -0.0200
    234  CD1       34.9800   24.9920   10.5560 C.ar  206  PHE206     -0.0042
    235  CD2       34.3990   24.8290   12.8710 C.ar  206  PHE206     -0.0042
    236  CE1       33.6300   25.2230   10.2280 C.ar  206  PHE206     -0.0003
    237  CE2       33.0500   25.0690   12.5600 C.ar  206  PHE206     -0.0003
    238  CZ        32.6670   25.2740   11.2390 C.ar  206  PHE206     -0.0000
    239  N         41.2570   23.5380    8.5770 N.3   209  LEU209     -0.1245
    240  CA        41.2760   24.8670    7.9150 C.3   209  LEU209      0.1561
    241  C         42.1460   25.9200    8.6250 C.2   209  LEU209      0.2260
    242  O         42.8360   26.7090    7.9740 O.2   209  LEU209     -0.2867
    243  CB        39.8610   25.4330    7.7630 C.3   209  LEU209      0.0270
    244  CG        38.8880   24.7340    6.8070 C.3   209  LEU209      0.0019
    245  CD1       37.4210   25.1030    7.1130 C.3   209  LEU209      0.0001
    246  CD2       39.2540   25.0320    5.3680 C.3   209  LEU209      0.0001
@<TRIPOS>BOND
     1   173   174    1
     2   174   177    1
     3   174   175    1
     4   177   178    1
     5    96    95    2
     6    95    94    1
     7    71    69   ar
     8    71    72   ar
     9    69    67   ar
    10   175   184   am
    11   175   176    2
    12    80    81    2
    13    80    79    1
    14   184   185    1
    15    64    65    2
    16    64    63    1
    17    97    94    1
    18    97    98    1
    19   179   178   ar
    20   179   181   ar
    21   178   180   ar
    22    94    93    1
    23    72    70   ar
    24    67    66    1
    25    67    68   ar
    26    66    63    1
    27    86    87    1
    28   186   185    1
    29   186   187    2
    30    93    88   am
    31   191   193   ar
    32   191   189   ar
    33    63    62    1
    34    82    79    1
    35    82    83    1
    36    79    78    1
    37   185   188    1
    38   107   108    2
    39   107   106    1
    40   105   106    1
    41    98   100   ar
    42    98    99   ar
    43   193   194   ar
    44   181   183   ar
    45   180   182   ar
    46    88    89    2
    47    88    87    1
    48    75    76    2
    49    75    74    1
    50    73    74    1
    51   188   189    1
    52   100   102   ar
    53    70    68   ar
    54    87    90    1
    55    99   101   ar
    56   189   190   ar
    57   106   109    1
    58    84    83    1
    59    83    85    1
    60    74    77    1
    61   194   195    1
    62   194   192   ar
    63   183   182   ar
    64   102   103   ar
    65   109   110    1
    66   101   103   ar
    67    91    90    1
    68   190   192   ar
    69    90    92    1
    70   103   104    1
    71   110   112    1
    72   110   111    1
    73   168   167    2
    74   246   244    1
    75   167   166    1
    76   164   162   ar
    77    51    53   ar
    78    51    49   ar
    79   162   161    1
    80   162   163   ar
    81    53    52   ar
    82   120   122   ar
    83   120   118   ar
    84   161   158    1
    85   115   116    2
    86   115   114    1
    87   122   123   ar
    88   244   245    1
    89   244   243    1
    90   160   159    2
    91   166   169    1
    92   166   165    1
    93   169   170    1
    94    49    48   ar
    95   147   148    1
    96   147   146    1
    97   159   158    1
    98   113   114    1
    99   148   149    1
   100   114   117    1
   101   226   224    1
   102   117   118    1
   103   158   157    1
   104   118   119   ar
   105   227   225    1
   106   123   124    1
   107   123   121   ar
   108    52    50   ar
   109   243   240    1
   110   240   239    1
   111   240   241    1
   112   242   241    2
   113    35    33   ar
   114    35    34   ar
   115   225   224    1
   116   146   143    1
   117   171   170    1
   118   170   172    1
   119    48    50   ar
   120    48    47    1
   121   149   150    2
   122    33    31   ar
   123   224   221    1
   124   119   121   ar
   125   157   155   am
   126   144   145    2
   127   144   143    1
   128    34    32   ar
   129   223   222    2
   130   129   130    1
   131   129   126    1
   132    46    45    2
   133   143   142    1
   134    47    44    1
   135   221   222    1
   136   221   220    1
   137   150   151    1
   138   150   152    1
   139   128   127    2
   140   127   126    1
   141   219   217   am
   142   222   228   am
   143   131   130   ar
   144   131   133   ar
   145   130   132   ar
   146    44    45    1
   147    44    43    1
   148   155   156    2
   149   155   154    1
   150    31    30   ar
   151    45    54   am
   152   236   234   ar
   153   236   238   ar
   154   126   125    1
   155    32    30   ar
   156   133   134   ar
   157   142   137   am
   158   132   134   ar
   159   218   217    2
   160   234   233   ar
   161   217   216    1
   162   228   229    1
   163    30    29    1
   164   153   154    1
   165   229   230    1
   166   229   232    1
   167    54    55    1
   168   238   237   ar
   169   231   230    2
   170    57    56    2
   171    55    56    1
   172    55    58    1
   173   137   138    2
   174   137   136    1
   175    28    27    2
   176   213   216    1
   177   213   212    1
   178   213   214    1
   179   215   214    2
   180   233   232    1
   181   233   235   ar
   182    61    59    1
   183   135   136    1
   184    29    26    1
   185   237   235   ar
   186    27    26    1
   187    27    36   am
   188   140   139    1
   189   136   139    1
   190    39    38    2
   191    59    58    1
   192    59    60    1
   193   199   198    2
   194   200   197    1
   195    26    25    1
   196    37    36    1
   197    37    38    1
   198    37    40    1
   199   197   198    1
   200   197   196    1
   201   139   141    1
   202    42    40    1
   203   198   201   am
   204    40    41    1
   205   204   203    2
   206   201   202    1
   207   202   203    1
   208   202   205    1
   209    14    13    2
   210   208   210   ar
   211   208   206   ar
   212   210   211   ar
   213   205   206    1
   214    15    12    1
   215   206   207   ar
   216   211   209   ar
   217   207   209   ar
   218    13    12    1
   219    13    16   am
   220    12    11    1
   221    10     8   ar
   222    10     9   ar
   223     8     6   ar
   224    19    18    2
   225    16    17    1
   226    17    18    1
   227    17    20    1
   228    21    20    1
   229    21    22    1
   230    24    22   ar
   231     9     7   ar
   232     6     7   ar
   233     6     5    1
   234    22    23   ar
   235     4     3    2
   236     2     5    1
   237     2     3    1
   238     2     1    1
