@<TRIPOS>MOLECULE
tmp/2q36A01.pdb
 225 216 0 0 0
SMALL
GASTEIGER

@<TRIPOS>ATOM
      1  N         18.6690   -7.3360   -9.5600 N.3    20  GLY20      -0.1210
      2  CA        19.9890   -7.8750   -9.2390 C.3    20  GLY20       0.1956
      3  C         19.9680   -9.3670   -8.9410 C.2    20  GLY20       0.2612
      4  O         20.9770  -10.0460   -9.1240 O.2    20  GLY20      -0.2717
      5  N         18.8390   -9.8890   -8.4630 N.am   21  ASP21      -0.1959
      6  CA        18.7450  -11.3210   -8.1960 C.3    21  ASP21       0.1840
      7  C         18.6590  -12.0970   -9.5110 C.2    21  ASP21       0.2622
      8  O         18.2680  -11.5540  -10.5380 O.2    21  ASP21      -0.2715
      9  CB        17.5560  -11.6540   -7.2860 C.3    21  ASP21       0.1450
     10  CG        17.8210  -11.3250   -5.8200 C.2    21  ASP21       0.3671
     11  OD1       18.8830  -10.7330   -5.4980 O.co2  21  ASP21      -0.2456
     12  OD2       16.9540  -11.6680   -4.9790 O.co2  21  ASP21      -0.2456
     13  N         19.0370  -13.3680   -9.4600 N.am   22  ASP22      -0.1971
     14  CA        19.0970  -14.2170  -10.6470 C.3    22  ASP22       0.1709
     15  C         17.7870  -14.9500  -10.9590 C.2    22  ASP22       0.2293
     16  O         17.6840  -15.6470  -11.9620 O.2    22  ASP22      -0.2864
     17  CB        20.2670  -15.2100  -10.5280 C.3    22  ASP22       0.1436
     18  CG        20.0130  -16.3200   -9.5250 C.2    22  ASP22       0.3671
     19  OD1       20.8730  -17.2250   -9.4550 O.co2  22  ASP22      -0.2456
     20  OD2       18.9770  -16.3110   -8.8220 O.co2  22  ASP22      -0.2456
     21  N          8.9770    2.2450  -13.9780 N.3   121  TYR121     -0.1241
     22  CA         9.2450    2.0960  -15.3920 C.3   121  TYR121      0.1605
     23  C          8.4510    0.9180  -15.9370 C.2   121  TYR121      0.2264
     24  O          8.2310   -0.0750  -15.2380 O.2   121  TYR121     -0.2867
     25  CB        10.7470    1.8550  -15.6150 C.3   121  TYR121      0.0534
     26  CG        11.2090    1.9990  -17.0510 C.ar  121  TYR121     -0.0201
     27  CD1       11.7720    3.1950  -17.5100 C.ar  121  TYR121     -0.0009
     28  CD2       11.0950    0.9440  -17.9480 C.ar  121  TYR121     -0.0009
     29  CE1       12.2030    3.3300  -18.8230 C.ar  121  TYR121      0.0417
     30  CE2       11.5200    1.0690  -19.2670 C.ar  121  TYR121      0.0417
     31  CZ        12.0690    2.2610  -19.6960 C.ar  121  TYR121      0.1957
     32  OH        12.4950    2.3750  -21.0000 O.3   121  TYR121     -0.2866
     33  N          8.4550   -1.7540  -19.1120 N.3   123  ALA123     -0.1231
     34  CA         9.2640   -2.3230  -20.1720 C.3   123  ALA123      0.1694
     35  C          8.4840   -3.4210  -20.8910 C.2   123  ALA123      0.2591
     36  O          7.6350   -4.0860  -20.2890 O.2   123  ALA123     -0.2718
     37  CB        10.5540   -2.8830  -19.5810 C.3   123  ALA123      0.0304
     38  N          8.7740   -3.6010  -22.1780 N.am  124  ILE124     -0.1980
     39  CA         8.1210   -4.6250  -22.9930 C.3   124  ILE124      0.1595
     40  C          8.7620   -5.9630  -22.6670 C.2   124  ILE124      0.2287
     41  O          9.9810   -6.0940  -22.7210 O.2   124  ILE124     -0.2864
     42  CB         8.2670   -4.3360  -24.5050 C.3   124  ILE124      0.0276
     43  CG1        7.5740   -3.0110  -24.8570 C.3   124  ILE124      0.0022
     44  CG2        7.6830   -5.4850  -25.3240 C.3   124  ILE124      0.0022
     45  CD1        7.8230   -2.5320  -26.2980 C.3   124  ILE124      0.0001
     46  N         11.3680   -7.6500  -25.0250 N.3   127  VAL127     -0.1231
     47  CA        12.6240   -6.8980  -25.0980 C.3   127  VAL127      0.1692
     48  C         13.5260   -7.2890  -23.9290 C.2   127  VAL127      0.2591
     49  O         14.7290   -7.4860  -24.1090 O.2   127  VAL127     -0.2718
     50  CB        12.3810   -5.3810  -25.1260 C.3   127  VAL127      0.0266
     51  CG1       13.7000   -4.6130  -25.0210 C.3   127  VAL127      0.0020
     52  CG2       11.6400   -4.9880  -26.4000 C.3   127  VAL127      0.0020
     53  N         12.9280   -7.4400  -22.7470 N.am  128  LEU128     -0.1980
     54  CA        13.6520   -7.9000  -21.5650 C.3   128  LEU128      0.1596
     55  C         14.2590   -9.2920  -21.7850 C.2   128  LEU128      0.2287
     56  O         15.4090   -9.5320  -21.4390 O.2   128  LEU128     -0.2864
     57  CB        12.7340   -7.9200  -20.3390 C.3   128  LEU128      0.0297
     58  CG        12.1840   -6.5740  -19.8760 C.3   128  LEU128      0.0022
     59  CD1       11.3450   -6.7520  -18.6110 C.3   128  LEU128      0.0001
     60  CD2       13.3330   -5.5780  -19.6430 C.3   128  LEU128      0.0001
     61  N         17.4660   -9.0320  -23.7600 N.3   131  TYR131     -0.1227
     62  CA        18.5240   -8.5500  -22.8750 C.3   131  TYR131      0.1736
     63  C         19.0830   -9.6880  -22.0140 C.2   131  TYR131      0.2595
     64  O         20.3030   -9.8090  -21.8420 O.2   131  TYR131     -0.2718
     65  CB        18.0170   -7.4420  -21.9480 C.3   131  TYR131      0.0548
     66  CG        17.5180   -6.1710  -22.6080 C.ar  131  TYR131     -0.0200
     67  CD1       17.8670   -5.8320  -23.9100 C.ar  131  TYR131     -0.0009
     68  CD2       16.7660   -5.2600  -21.8880 C.ar  131  TYR131     -0.0009
     69  CE1       17.4220   -4.6430  -24.4920 C.ar  131  TYR131      0.0417
     70  CE2       16.3300   -4.0630  -22.4580 C.ar  131  TYR131      0.0417
     71  CZ        16.6670   -3.7610  -23.7530 C.ar  131  TYR131      0.1957
     72  OH        16.2260   -2.5870  -24.3130 O.3   131  TYR131     -0.2866
     73  N         18.1920  -10.5310  -21.4950 N.am  132  ALA132     -0.1966
     74  CA        18.5960  -11.6460  -20.6320 C.3   132  ALA132      0.1728
     75  C         19.4440  -12.6720  -21.3690 C.2   132  ALA132      0.2617
     76  O         20.1000  -13.4850  -20.7320 O.2   132  ALA132     -0.2715
     77  CB        17.3860  -12.3220  -20.0060 C.3   132  ALA132      0.0334
     78  N         19.4230  -12.6420  -22.7020 N.am  133  SER133     -0.1936
     79  CA        20.2740  -13.5240  -23.5090 C.3   133  SER133      0.2055
     80  C         21.5840  -12.8350  -23.9160 C.2   133  SER133      0.2644
     81  O         22.3580  -13.3920  -24.6960 O.2   133  SER133     -0.2714
     82  CB        19.5370  -13.9780  -24.7690 C.3   133  SER133      0.2130
     83  OG        19.4250  -12.9030  -25.6920 O.3   133  SER133     -0.2179
     84  N         21.8130  -11.6230  -23.4150 N.am  134  GLY134     -0.1939
     85  CA        23.0170  -10.8650  -23.7210 C.3   134  GLY134      0.2014
     86  C         23.0110  -10.1430  -25.0560 C.2   134  GLY134      0.2639
     87  O         24.0660   -9.8780  -25.6060 O.2   134  GLY134     -0.2714
     88  N         21.8360   -9.7960  -25.5700 N.am  135  ARG135     -0.1963
     89  CA        21.7260   -9.1610  -26.8820 C.3   135  ARG135      0.1729
     90  C         20.8340   -7.9350  -26.8480 C.2   135  ARG135      0.2616
     91  O         19.8880   -7.8710  -26.0600 O.2   135  ARG135     -0.2715
     92  CB        21.1100  -10.1330  -27.8870 C.3   135  ARG135      0.0348
     93  CG        21.9080  -11.3800  -28.1550 C.3   135  ARG135      0.0492
     94  CD        21.0760  -12.4020  -28.9430 C.3   135  ARG135      0.2205
     95  NE        21.8960  -13.5370  -29.3560 N.pl3 135  ARG135     -0.0865
     96  CZ        22.2450  -14.5530  -28.5700 C.cat 135  ARG135      0.5346
     97  NH1       21.8580  -14.6090  -27.3070 N.pl3 135  ARG135      0.1354
     98  NH2       23.0020  -15.5220  -29.0550 N.pl3 135  ARG135      0.1354
     99  N         21.1410   -6.9650  -27.7050 N.am  136  THR136     -0.1951
    100  CA        20.2830   -5.7900  -27.8830 C.3   136  THR136      0.1897
    101  C         19.6850   -5.7720  -29.2860 C.2   136  THR136      0.2313
    102  O         18.8330   -4.9420  -29.5770 O.2   136  THR136     -0.2863
    103  CB        21.0190   -4.4820  -27.5800 C.3   136  THR136      0.1794
    104  OG1       22.1170   -4.3270  -28.4840 O.3   136  THR136     -0.2208
    105  CG2       21.5400   -4.4930  -26.1380 C.3   136  THR136      0.0378
    106  N         19.0360   -2.6310  -31.8750 N.3   155  GLU155     -0.1231
    107  CA        19.8020   -1.7240  -31.0060 C.3   155  GLU155      0.1699
    108  C         19.0520   -1.3310  -29.7200 C.2   155  GLU155      0.2593
    109  O         19.0000   -0.1660  -29.3470 O.2   155  GLU155     -0.2718
    110  CB        20.2800   -0.5060  -31.8100 C.3   155  GLU155      0.0402
    111  CG        21.2580   -0.9220  -32.9250 C.3   155  GLU155      0.1161
    112  CD        21.8770    0.2420  -33.7010 C.2   155  GLU155      0.3649
    113  OE1       21.5180    1.4170  -33.4390 O.co2 155  GLU155     -0.2457
    114  OE2       22.7250   -0.0360  -34.5870 O.co2 155  GLU155     -0.2457
    115  N         18.4650   -2.3370  -29.0690 N.am  156  GLY156     -0.1942
    116  CA        17.7450   -2.1730  -27.8090 C.3   156  GLY156      0.2014
    117  C         16.2510   -1.8830  -27.8770 C.2   156  GLY156      0.2639
    118  O         15.5640   -1.9120  -26.8460 O.2   156  GLY156     -0.2714
    119  N         15.7230   -1.6080  -29.0660 N.am  157  TYR157     -0.1959
    120  CA        14.3270   -1.1890  -29.1760 C.3   157  TYR157      0.1771
    121  C         13.5030   -2.0430  -30.1130 C.2   157  TYR157      0.2619
    122  O         13.9580   -2.4120  -31.2030 O.2   157  TYR157     -0.2715
    123  CB        14.2550    0.2800  -29.5940 C.3   157  TYR157      0.0574
    124  CG        14.8250    1.1990  -28.5370 C.ar  157  TYR157     -0.0198
    125  CD1       16.1860    1.4540  -28.4790 C.ar  157  TYR157     -0.0009
    126  CD2       14.0050    1.7830  -27.5760 C.ar  157  TYR157     -0.0009
    127  CE1       16.7220    2.2810  -27.5050 C.ar  157  TYR157      0.0417
    128  CE2       14.5310    2.6200  -26.5990 C.ar  157  TYR157      0.0417
    129  CZ        15.8930    2.8630  -26.5720 C.ar  157  TYR157      0.1957
    130  OH        16.4370    3.6880  -25.6110 O.3   157  TYR157     -0.2866
    131  N         12.2880   -2.3560  -29.6660 N.am  158  ALA158     -0.1977
    132  CA        11.3550   -3.1460  -30.4430 C.3   158  ALA158      0.1597
    133  C         10.8910   -2.3250  -31.6290 C.2   158  ALA158      0.2287
    134  O         10.8040   -1.1010  -31.5350 O.2   158  ALA158     -0.2864
    135  CB        10.1680   -3.5510  -29.5880 C.3   158  ALA158      0.0319
    136  N         16.7750  -21.2250  -18.7690 N.3   322  GLU322     -0.1245
    137  CA        15.9950  -20.4610  -17.7790 C.3   322  GLU322      0.1567
    138  C         14.8680  -19.5970  -18.3940 C.2   322  GLU322      0.2260
    139  O         14.3620  -18.6660  -17.7570 O.2   322  GLU322     -0.2867
    140  CB        16.9340  -19.5850  -16.9260 C.3   322  GLU322      0.0388
    141  CG        17.5680  -18.3570  -17.6340 C.3   322  GLU322      0.1160
    142  CD        18.6050  -18.7030  -18.7070 C.2   322  GLU322      0.3649
    143  OE1       18.9000  -17.8260  -19.5450 O.co2 322  GLU322     -0.2457
    144  OE2       19.1310  -19.8390  -18.7180 O.co2 322  GLU322     -0.2457
    145  N         14.2040  -11.9260  -15.5230 N.3   329  ILE329     -0.1245
    146  CA        15.6540  -11.7940  -15.4270 C.3   329  ILE329      0.1561
    147  C         16.1370  -10.5840  -16.2280 C.2   329  ILE329      0.2260
    148  O         16.9670   -9.8260  -15.7520 O.2   329  ILE329     -0.2867
    149  CB        16.3730  -13.0940  -15.8610 C.3   329  ILE329      0.0252
    150  CG1       16.1070  -14.2040  -14.8320 C.3   329  ILE329      0.0019
    151  CG2       17.8770  -12.8590  -16.0110 C.3   329  ILE329      0.0019
    152  CD1       16.4780  -15.6190  -15.2960 C.3   329  ILE329      0.0001
    153  N         15.4240   -7.6430  -14.0510 N.3   332  SER332     -0.1202
    154  CA        16.3720   -7.6250  -12.9220 C.3   332  SER332      0.2020
    155  C         17.7170   -7.0290  -13.3260 C.2   332  SER332      0.2619
    156  O         18.3430   -6.3180  -12.5430 O.2   332  SER332     -0.2717
    157  CB        16.5980   -9.0450  -12.3840 C.3   332  SER332      0.2103
    158  OG        17.6140   -9.0880  -11.3980 O.3   332  SER332     -0.2182
    159  N         18.1500   -7.3360  -14.5470 N.am  333  ILE333     -0.1965
    160  CA        19.4280   -6.8550  -15.0750 C.3   333  ILE333      0.1727
    161  C         19.3460   -5.3750  -15.4110 C.2   333  ILE333      0.2616
    162  O         20.1620   -4.5790  -14.9410 O.2   333  ILE333     -0.2715
    163  CB        19.8450   -7.6150  -16.3580 C.3   333  ILE333      0.0290
    164  CG1       20.0710   -9.1020  -16.0800 C.3   333  ILE333      0.0022
    165  CG2       21.1140   -7.0130  -16.9300 C.3   333  ILE333      0.0023
    166  CD1       20.2360   -9.9350  -17.3370 C.3   333  ILE333      0.0001
    167  N         18.3700   -5.0130  -16.2390 N.am  334  LEU334     -0.1977
    168  CA        18.1640   -3.6230  -16.6360 C.3   334  LEU334      0.1596
    169  C         18.0570   -2.7320  -15.4040 C.2   334  LEU334      0.2287
    170  O         18.7910   -1.7620  -15.2590 O.2   334  LEU334     -0.2864
    171  CB        16.8900   -3.4930  -17.4780 C.3   334  LEU334      0.0297
    172  CG        16.5240   -2.1000  -18.0060 C.3   334  LEU334      0.0022
    173  CD1       17.5570   -1.6210  -19.0200 C.3   334  LEU334      0.0001
    174  CD2       15.1110   -2.1100  -18.6130 C.3   334  LEU334      0.0001
    175  N         19.1160   -3.0830  -12.5520 N.3   336  SER336     -0.1202
    176  CA        20.3860   -3.0420  -11.8020 C.3   336  SER336      0.2020
    177  C         21.4320   -2.1510  -12.4480 C.2   336  SER336      0.2618
    178  O         22.3570   -1.7050  -11.7760 O.2   336  SER336     -0.2717
    179  CB        21.0190   -4.4360  -11.7140 C.3   336  SER336      0.2103
    180  OG        20.2560   -5.3340  -10.9440 O.3   336  SER336     -0.2182
    181  N         21.3230   -1.9440  -13.7600 N.am  337  LEU337     -0.1979
    182  CA        22.3390   -1.1990  -14.5100 C.3   337  LEU337      0.1596
    183  C         22.4970    0.2540  -14.0920 C.2   337  LEU337      0.2287
    184  O         21.5150    0.9890  -13.9420 O.2   337  LEU337     -0.2864
    185  CB        22.0700   -1.2240  -16.0220 C.3   337  LEU337      0.0297
    186  CG        22.3260   -2.5130  -16.8020 C.3   337  LEU337      0.0022
    187  CD1       22.2230   -2.2110  -18.2910 C.3   337  LEU337      0.0001
    188  CD2       23.6800   -3.1170  -16.4900 C.3   337  LEU337      0.0001
    189  N         23.6950    2.6150  -15.9530 N.3   339  THR339     -0.1203
    190  CA        23.2030    3.4090  -17.0770 C.3   339  THR339      0.1994
    191  C         21.7050    3.6980  -16.9840 C.2   339  THR339      0.2617
    192  O         21.2400    4.7450  -17.4400 O.2   339  THR339     -0.2717
    193  CB        23.4070    2.6490  -18.4080 C.3   339  THR339      0.1784
    194  OG1       24.5640    1.8130  -18.3210 O.3   339  THR339     -0.2211
    195  CG2       23.5450    3.6200  -19.5800 C.3   339  THR339      0.0376
    196  N         20.9640    2.7580  -16.3980 N.am  340  PHE340     -0.1975
    197  CA        19.5070    2.8100  -16.3530 C.3   340  PHE340      0.1639
    198  C         18.9110    3.7200  -15.2700 C.2   340  PHE340      0.2290
    199  O         17.7350    4.0840  -15.3530 O.2   340  PHE340     -0.2864
    200  CB        18.9660    1.3810  -16.1860 C.3   340  PHE340      0.0560
    201  CG        17.4790    1.2780  -16.2920 C.ar  340  PHE340     -0.0200
    202  CD1       16.8520    1.3740  -17.5280 C.ar  340  PHE340     -0.0042
    203  CD2       16.7030    1.0810  -15.1590 C.ar  340  PHE340     -0.0042
    204  CE1       15.4690    1.2820  -17.6370 C.ar  340  PHE340     -0.0003
    205  CE2       15.3190    0.9900  -15.2560 C.ar  340  PHE340     -0.0003
    206  CZ        14.7000    1.0940  -16.4990 C.ar  340  PHE340     -0.0000
    207  N         16.8610    6.6530  -16.2360 N.3   343  MET343     -0.1245
    208  CA        15.6510    6.3330  -17.0130 C.3   343  MET343      0.1570
    209  C         14.3720    6.2680  -16.1710 C.2   343  MET343      0.2261
    210  O         13.2760    6.4480  -16.7000 O.2   343  MET343     -0.2867
    211  CB        15.8260    5.0060  -17.7660 C.3   343  MET343      0.0387
    212  CG        17.0800    4.9210  -18.6290 C.3   343  MET343      0.0595
    213  SD        17.1550    6.2390  -19.8590 S.3   343  MET343     -0.1393
    214  CE        18.8700    6.1660  -20.3970 C.3   343  MET343      0.0692
    215  N          8.1360    6.3400  -22.4710 N.3   360  ARG360     -0.1245
    216  CA         9.5470    5.9980  -22.6910 C.3   360  ARG360      0.1563
    217  C         10.4040    7.2310  -22.9890 C.2   360  ARG360      0.2260
    218  O         10.9970    7.8120  -22.0760 O.2   360  ARG360     -0.2867
    219  CB         9.6700    4.9380  -23.8000 C.3   360  ARG360      0.0307
    220  CG        10.5860    3.7540  -23.4630 C.3   360  ARG360      0.0489
    221  CD        10.5070    2.6730  -24.5460 C.3   360  ARG360      0.2205
    222  NE         9.1260    2.2480  -24.8050 N.pl3 360  ARG360     -0.0865
    223  CZ         8.7230    1.5360  -25.8620 C.cat 360  ARG360      0.5346
    224  NH1        9.5850    1.1380  -26.8010 N.pl3 360  ARG360      0.1354
    225  NH2        7.4370    1.2220  -25.9850 N.pl3 360  ARG360      0.1354
@<TRIPOS>BOND
     1   114   112   ar
     2   112   113   ar
     3   112   111    1
     4   111   110    1
     5   106   107    1
     6   110   107    1
     7   133   134    2
     8   133   132    1
     9   122   121    2
    10   107   108    1
    11   132   131    1
    12   132   135    1
    13   121   131   am
    14   121   120    1
    15   108   109    2
    16   108   115   am
    17   123   120    1
    18   123   124    1
    19   102   101    2
    20    95    94    1
    21    95    96    2
    22   101   100    1
    23   120   119    1
    24   115   116    1
    25   119   117   am
    26    98    96    1
    27    94    93    1
    28    96    97    1
    29   124   125   ar
    30   124   126   ar
    31   104   103    1
    32   125   127   ar
    33    93    92    1
    34    92    89    1
    35   100    99    1
    36   100   103    1
    37   117   116    1
    38   117   118    2
    39    99    90   am
    40   103   105    1
    41   126   128   ar
    42   127   129   ar
    43    89    90    1
    44    89    88    1
    45    90    91    2
    46   224   223    1
    47   128   129   ar
    48   129   130    1
    49    52    50    1
    50    45    43    1
    51   225   223    1
    52   223   222    2
    53    83    82    1
    54    87    86    2
    55    88    86   am
    56    44    42    1
    57    50    47    1
    58    50    51    1
    59    47    46    1
    60    47    48    1
    61    86    85    1
    62    43    42    1
    63   222   221    1
    64    82    79    1
    65    81    80    2
    66   221   220    1
    67    42    39    1
    68    69    67   ar
    69    69    71   ar
    70    72    71    1
    71    49    48    2
    72    48    53   am
    73    80    79    1
    74    80    84   am
    75    67    66   ar
    76   219   220    1
    77   219   216    1
    78    61    62    1
    79    71    70   ar
    80    85    84    1
    81    79    78    1
    82    39    40    1
    83    39    38    1
    84   217   216    1
    85   217   218    2
    86    62    63    1
    87    62    65    1
    88    53    54    1
    89    41    40    2
    90    78    75   am
    91   216   215    1
    92    66    65    1
    93    66    68   ar
    94    70    68   ar
    95    38    35   am
    96    63    64    2
    97    63    73   am
    98    55    54    1
    99    55    56    2
   100    54    57    1
   101    73    74    1
   102    75    76    2
   103    75    74    1
   104    32    31    1
   105    35    36    2
   106    35    34    1
   107    74    77    1
   108   214   213    1
   109    57    58    1
   110    34    37    1
   111    34    33    1
   112    58    60    1
   113    58    59    1
   114   213   212    1
   115    31    30   ar
   116    31    29   ar
   117   195   193    1
   118   143   142   ar
   119    30    28   ar
   120   173   172    1
   121    29    27   ar
   122   136   137    1
   123   144   142   ar
   124   142   141    1
   125   212   211    1
   126   174   172    1
   127   193   194    1
   128   193   190    1
   129   138   137    1
   130   138   139    2
   131   187   186    1
   132   172   171    1
   133    28    26   ar
   134   137   140    1
   135   211   208    1
   136   204   202   ar
   137   204   206   ar
   138   141   140    1
   139   202   201   ar
   140    27    26   ar
   141   171   168    1
   142   192   191    2
   143   166   164    1
   144   190   191    1
   145   190   189    1
   146    26    25    1
   147   208   207    1
   148   208   209    1
   149   191   196   am
   150   165   163    1
   151   186   188    1
   152   186   185    1
   153   210   209    2
   154   168   167    1
   155   168   169    1
   156   206   205   ar
   157   196   197    1
   158   163   164    1
   159   163   160    1
   160   197   200    1
   161   197   198    1
   162   201   200    1
   163   201   203   ar
   164   167   161   am
   165   147   148    2
   166   147   146    1
   167   185   182    1
   168   151   149    1
   169    23    22    1
   170    23    24    2
   171   149   146    1
   172   149   150    1
   173    25    22    1
   174   145   146    1
   175   161   160    1
   176   161   162    2
   177   169   170    2
   178    22    21    1
   179   199   198    2
   180   152   150    1
   181   205   203   ar
   182   160   159    1
   183   159   155   am
   184   182   183    1
   185   182   181    1
   186   183   184    2
   187   153   154    1
   188   181   177   am
   189   155   154    1
   190   155   156    2
   191   154   157    1
   192   175   176    1
   193   177   176    1
   194   177   178    2
   195   157   158    1
   196    16    15    2
   197   176   179    1
   198   179   180    1
   199    15    14    1
   200    14    17    1
   201    14    13    1
   202     8     7    2
   203    17    18    1
   204     1     2    1
   205    18    19   ar
   206    18    20   ar
   207     7    13   am
   208     7     6    1
   209     2     3    1
   210     4     3    2
   211     3     5   am
   212     5     6    1
   213     6     9    1
   214     9    10    1
   215    10    11   ar
   216    10    12   ar
