@<TRIPOS>MOLECULE
tmp/2q37A00.pdb
 117 115 0 0 0
SMALL
GASTEIGER

@<TRIPOS>ATOM
      1  N         18.6960   13.6600   17.0470 N.3    52  HIS52      -0.1227
      2  CA        19.1680   14.4810   15.9400 C.3    52  HIS52       0.1737
      3  C         18.5870   14.1360   14.5970 C.2    52  HIS52       0.2438
      4  O         18.1240   13.0240   14.3610 O.2    52  HIS52      -0.2733
      5  CB        20.6900   14.3750   15.7620 C.3    52  HIS52       0.0758
      6  CG        21.4850   14.7650   16.9640 C.ar   52  HIS52       0.0818
      7  ND1       21.7140   16.0790   17.3110 N.ar   52  HIS52      -0.2268
      8  CD2       22.1660   14.0120   17.8600 C.ar   52  HIS52       0.1154
      9  CE1       22.5100   16.1210   18.3650 C.ar   52  HIS52       0.1986
     10  NE2       22.7990   14.8800   18.7180 N.ar   52  HIS52      -0.2212
     11  N         18.5820   15.1160   13.7010 N.am   53  PRO53      -0.2718
     12  CA        18.0790   14.8830   12.3500 C.3    53  PRO53       0.1535
     13  C         19.2700   14.2330   11.6160 C.2    53  PRO53       0.2598
     14  O         20.4360   14.5270   11.9210 O.2    53  PRO53      -0.2715
     15  CB        17.7900   16.2950   11.8340 C.3    53  PRO53       0.0310
     16  CG        18.7570   17.1520   12.6220 C.3    53  PRO53       0.0237
     17  CD        18.6610   16.5560   14.0030 C.3    53  PRO53       0.0939
     18  N         18.9960   13.3450   10.6660 N.am   54  GLN54      -0.1964
     19  CA        20.0800   12.7150    9.9220 C.3    54  GLN54       0.1733
     20  C         20.8460   13.7950    9.1740 C.2    54  GLN54       0.2616
     21  O         20.3500   14.9140    9.0010 O.2    54  GLN54      -0.2715
     22  CB        19.5380   11.7420    8.8860 C.3    54  GLN54       0.0408
     23  CG        18.5850   10.7060    9.4030 C.3    54  GLN54       0.0908
     24  CD        18.2630    9.6810    8.3330 C.2    54  GLN54       0.2608
     25  OE1       17.8930   10.0330    7.1990 O.2    54  GLN54      -0.2717
     26  NE2       18.4090    8.4050    8.6780 N.am   54  GLN54      -0.0878
     27  N         22.0560   13.4660    8.7320 N.am   55  ILE55      -0.1977
     28  CA        22.8420   14.4120    7.9570 C.3    55  ILE55       0.1596
     29  C         22.2470   14.4100    6.5500 C.2    55  ILE55       0.2287
     30  O         22.3500   13.4220    5.8180 O.2    55  ILE55      -0.2864
     31  CB        24.3240   13.9950    7.8840 C.3    55  ILE55       0.0276
     32  CG1       24.9790   14.1610    9.2640 C.3    55  ILE55       0.0022
     33  CG2       25.0410   14.8210    6.8200 C.3    55  ILE55       0.0022
     34  CD1       24.9720   15.5930    9.8120 C.3    55  ILE55       0.0001
     35  N         23.9700   23.3570   12.6860 N.3    61  GLU61      -0.1231
     36  CA        25.3720   22.9940   12.5650 C.3    61  GLU61       0.1699
     37  C         25.5490   22.6470   11.0970 C.2    61  GLU61       0.2592
     38  O         26.6710   22.6050   10.5860 O.2    61  GLU61      -0.2718
     39  CB        25.7060   21.7670   13.4030 C.3    61  GLU61       0.0402
     40  CG        25.9780   22.0470   14.8580 C.3    61  GLU61       0.1161
     41  CD        24.7460   21.9530   15.7240 C.2    61  GLU61       0.3649
     42  OE1       23.8090   21.2150   15.3480 O.co2  61  GLU61      -0.2457
     43  OE2       24.7300   22.6020   16.7980 O.co2  61  GLU61      -0.2457
     44  N         24.4170   22.4100   10.4300 N.am   62  GLN62      -0.1979
     45  CA        24.4050   22.0600    9.0200 C.3    62  GLN62       0.1601
     46  C         24.2460   23.2230    8.0220 C.2    62  GLN62       0.2287
     47  O         24.0970   23.0010    6.8070 O.2    62  GLN62      -0.2864
     48  CB        23.3310   21.0160    8.7690 C.3    62  GLN62       0.0394
     49  CG        23.8390   19.6100    8.8470 C.3    62  GLN62       0.0908
     50  CD        22.8100   18.6000    8.3640 C.2    62  GLN62       0.2608
     51  OE1       21.8290   18.3130    9.0510 O.2    62  GLN62      -0.2717
     52  NE2       23.0220   18.0640    7.1680 N.am   62  GLN62      -0.0878
     53  N         21.3630    6.1900   14.0150 N.3    91  ILE91      -0.1231
     54  CA        21.7240    6.9690   12.8310 C.3    91  ILE91       0.1692
     55  C         23.1900    7.4050   12.8360 C.2    91  ILE91       0.2592
     56  O         23.8810    7.3070   13.8490 O.2    91  ILE91      -0.2718
     57  CB        20.8310    8.2440   12.6770 C.3    91  ILE91       0.0266
     58  CG1       21.0030    9.1620   13.8800 C.3    91  ILE91       0.0019
     59  CG2       19.3730    7.8520   12.5700 C.3    91  ILE91       0.0020
     60  CD1       20.4310   10.5380   13.6420 C.3    91  ILE91       0.0001
     61  N         23.6580    7.8770   11.6860 N.am   92  PHE92      -0.1962
     62  CA        25.0260    8.3540   11.5420 C.3    92  PHE92       0.1771
     63  C         25.1780    9.7090   12.2850 C.2    92  PHE92       0.2619
     64  O         24.5110   10.6960   11.9470 O.2    92  PHE92      -0.2715
     65  CB        25.3400    8.5060   10.0530 C.3    92  PHE92       0.0574
     66  CG        26.6820    9.1120    9.7760 C.ar   92  PHE92      -0.0200
     67  CD1       27.8550    8.4330   10.1120 C.ar   92  PHE92      -0.0042
     68  CD2       26.7830   10.3640    9.1590 C.ar   92  PHE92      -0.0042
     69  CE1       29.1190    9.0010    9.8280 C.ar   92  PHE92      -0.0003
     70  CE2       28.0400   10.9380    8.8720 C.ar   92  PHE92      -0.0003
     71  CZ        29.2060   10.2550    9.2070 C.ar   92  PHE92      -0.0000
     72  N         26.0500    9.7410   13.2900 N.am   93  ILE93      -0.1963
     73  CA        26.2910   10.9400   14.1070 C.3    93  ILE93       0.1727
     74  C         27.6730   11.5330   13.8410 C.2    93  ILE93       0.2616
     75  O         28.6870   10.8440   13.9060 O.2    93  ILE93      -0.2715
     76  CB        26.2090   10.6210   15.6170 C.3    93  ILE93       0.0290
     77  CG1       24.8620    9.9540   15.9370 C.3    93  ILE93       0.0022
     78  CG2       26.3680   11.9150   16.4440 C.3    93  ILE93       0.0023
     79  CD1       23.6480   10.8590   15.6870 C.3    93  ILE93       0.0001
     80  N         27.7070   12.8190   13.5410 N.am   94  ILE94      -0.1963
     81  CA        28.9600   13.4980   13.2660 C.3    94  ILE94       0.1727
     82  C         28.7100   14.9640   13.5260 C.2    94  ILE94       0.2616
     83  O         27.6350   15.4780   13.1950 O.2    94  ILE94      -0.2715
     84  CB        29.3790   13.3360   11.7840 C.3    94  ILE94       0.0290
     85  CG1       30.8430   13.7490   11.5900 C.3    94  ILE94       0.0022
     86  CG2       28.5090   14.2200   10.8940 C.3    94  ILE94       0.0023
     87  CD1       31.3380   13.7000   10.1000 C.3    94  ILE94       0.0001
     88  N         29.6820   15.6290   14.1350 N.am   95  CYS95      -0.1954
     89  CA        29.5650   17.0490   14.3920 C.3    95  CYS95       0.1843
     90  C         29.7590   17.6910   13.0170 C.2    95  CYS95       0.2625
     91  O         30.8150   17.5600   12.4110 O.2    95  CYS95      -0.2714
     92  CB        30.6590   17.5000   15.3670 C.3    95  CYS95       0.0997
     93  SG        30.6100   19.2540   15.8590 S.3    95  CYS95      -0.0797
     94  N         28.7130   18.3320   12.5030 N.am   96  ALA96      -0.1977
     95  CA        28.7590   19.0140   11.2030 C.3    96  ALA96       0.1597
     96  C         29.1140   20.4650   11.5130 C.2    96  ALA96       0.2287
     97  O         28.9190   20.9160   12.6480 O.2    96  ALA96      -0.2864
     98  CB        27.4040   18.9450   10.5490 C.3    96  ALA96       0.0319
     99  N         29.3640   17.9900   19.5920 N.3   127  ILE127     -0.1245
    100  CA        28.1820   18.7730   19.2630 C.3   127  ILE127      0.1561
    101  C         27.6790   19.4840   20.5150 C.2   127  ILE127      0.2260
    102  O         27.3090   20.6620   20.4810 O.2   127  ILE127     -0.2867
    103  CB        27.0470   17.8660   18.7490 C.3   127  ILE127      0.0252
    104  CG1       27.4100   17.3100   17.3740 C.3   127  ILE127      0.0019
    105  CG2       25.7320   18.6510   18.7200 C.3   127  ILE127      0.0019
    106  CD1       26.5150   16.1850   16.8920 C.3   127  ILE127      0.0001
    107  N         27.3980   23.4800   21.4880 N.3   131  ARG131     -0.1245
    108  CA        26.1670   24.1200   21.9080 C.3   131  ARG131      0.1563
    109  C         26.2520   24.7250   23.2970 C.2   131  ARG131      0.2260
    110  O         25.5070   25.6470   23.6150 O.2   131  ARG131     -0.2867
    111  CB        25.0100   23.1260   21.8520 C.3   131  ARG131      0.0307
    112  CG        24.7060   22.6700   20.4460 C.3   131  ARG131      0.0489
    113  CD        23.5920   21.6690   20.4020 C.3   131  ARG131      0.2205
    114  NE        23.3680   21.2460   19.0300 N.pl3 131  ARG131     -0.0865
    115  CZ        22.3920   20.4330   18.6370 C.cat 131  ARG131      0.5346
    116  NH1       21.5360   19.9410   19.5250 N.pl3 131  ARG131      0.1354
    117  NH2       22.2600   20.1350   17.3450 N.pl3 131  ARG131      0.1354
@<TRIPOS>BOND
     1    30    29    2
     2    29    28    1
     3    47    46    2
     4    33    31    1
     5    52    50   am
     6    25    24    2
     7    31    28    1
     8    31    32    1
     9    28    27    1
    10    46    45    1
    11    24    26   am
    12    24    23    1
    13    50    49    1
    14    50    51    2
    15    27    20   am
    16    48    49    1
    17    48    45    1
    18    70    68   ar
    19    70    71   ar
    20    22    23    1
    21    22    19    1
    22    21    20    2
    23    45    44    1
    24    68    66   ar
    25    20    19    1
    26    71    69   ar
    27    32    34    1
    28    66    65    1
    29    66    67   ar
    30    69    67   ar
    31    19    18    1
    32    65    62    1
    33    87    85    1
    34    44    37   am
    35    98    95    1
    36    38    37    2
    37    18    13   am
    38    86    84    1
    39    37    36    1
    40    95    96    1
    41    95    94    1
    42    96    97    2
    43    62    61    1
    44    62    63    1
    45    85    84    1
    46    13    14    2
    47    13    12    1
    48    61    55   am
    49    84    81    1
    50    15    12    1
    51    15    16    1
    52    64    63    2
    53    63    72   am
    54    12    11    1
    55    91    90    2
    56    94    90   am
    57    36    35    1
    58    36    39    1
    59    59    57    1
    60    16    17    1
    61    57    54    1
    62    57    58    1
    63    54    55    1
    64    54    53    1
    65    55    56    2
    66    90    89    1
    67    83    82    2
    68    81    82    1
    69    81    80    1
    70    72    73    1
    71    39    40    1
    72    82    88   am
    73    80    74   am
    74    60    58    1
    75    11    17    1
    76    11     3   am
    77    74    75    2
    78    74    73    1
    79    73    76    1
    80    88    89    1
    81     4     3    2
    82    89    92    1
    83     3     2    1
    84    40    41    1
    85    42    41   ar
    86    92    93    1
    87    76    77    1
    88    76    78    1
    89    79    77    1
    90    41    43   ar
    91     5     2    1
    92     5     6    1
    93     2     1    1
    94   106   104    1
    95     6     7   ar
    96     6     8   ar
    97     7     9   ar
    98   117   115    1
    99   104   103    1
   100     8    10   ar
   101     9    10   ar
   102   115   114    2
   103   115   116    1
   104   105   103    1
   105   103   100    1
   106   114   113    1
   107   100    99    1
   108   100   101    1
   109   113   112    1
   110   112   111    1
   111   102   101    2
   112   107   108    1
   113   111   108    1
   114   108   109    1
   115   109   110    2
