@<TRIPOS>MOLECULE
tmp/2q38A01.pdb
 108 107 0 0 0
SMALL
GASTEIGER

@<TRIPOS>ATOM
      1  N         29.1000    1.4320   10.2860 N.3     2  TRP2       -0.1227
      2  CA        28.4230    0.5070   11.2010 C.3     2  TRP2        0.1737
      3  C         27.4390   -0.3770   10.4340 C.2     2  TRP2        0.2596
      4  O         26.8800    0.0310    9.4150 O.2     2  TRP2       -0.2718
      5  CB        27.7250    1.2280   12.3540 C.3     2  TRP2        0.0564
      6  CG        26.4570    1.9350   11.9900 C.ar    2  TRP2        0.0003
      7  CD1       26.3700    3.2560   11.6320 C.ar    2  TRP2        0.0946
      8  CD2       25.1210    1.4200   11.9400 C.ar    2  TRP2        0.0152
      9  NE1       25.0700    3.5800   11.3620 N.ar    2  TRP2       -0.2442
     10  CE2       24.2810    2.4780   11.5430 C.ar    2  TRP2        0.0810
     11  CE3       24.5410    0.1730   12.1880 C.ar    2  TRP2        0.0012
     12  CZ2       22.9010    2.3330   11.3880 C.ar    2  TRP2        0.0191
     13  CZ3       23.1720    0.0280   12.0360 C.ar    2  TRP2        0.0001
     14  CH2       22.3620    1.1020   11.6390 C.ar    2  TRP2        0.0015
     15  N         27.2690   -1.5840   10.9510 N.am    3  GLY3       -0.1942
     16  CA        26.3140   -2.5230   10.3840 C.3     3  GLY3        0.2014
     17  C         25.9500   -3.5980   11.3940 C.2     3  GLY3        0.2639
     18  O         25.9360   -3.3260   12.5960 O.2     3  GLY3       -0.2714
     19  N         25.6600   -4.7910   10.8860 N.am    4  TYR4       -0.1959
     20  CA        25.3350   -5.9390   11.7180 C.3     4  TYR4        0.1771
     21  C         26.2440   -7.1180   11.3950 C.2     4  TYR4        0.2620
     22  O         25.9980   -8.2300   11.8540 O.2     4  TYR4       -0.2715
     23  CB        23.8590   -6.3340   11.5410 C.3     4  TYR4        0.0574
     24  CG        22.9310   -5.1950   11.9330 C.ar    4  TYR4       -0.0198
     25  CD1       22.4740   -5.0790   13.2350 C.ar    4  TYR4       -0.0009
     26  CD2       22.5340   -4.2410   11.0080 C.ar    4  TYR4       -0.0009
     27  CE1       21.6360   -4.0510   13.6160 C.ar    4  TYR4        0.0417
     28  CE2       21.6920   -3.2050   11.3740 C.ar    4  TYR4        0.0417
     29  CZ        21.2490   -3.1190   12.6780 C.ar    4  TYR4        0.1957
     30  OH        20.4090   -2.0940   13.0580 O.3     4  TYR4       -0.2866
     31  N         27.2890   -6.8740   10.6130 N.am    5  GLY5       -0.1940
     32  CA        28.2060   -7.9340   10.2270 C.3     5  GLY5        0.2014
     33  C         29.1510   -8.2890   11.3590 C.2     5  GLY5        0.2638
     34  O         29.1250   -7.6300   12.3980 O.2     5  GLY5       -0.2714
     35  N         29.9750   -9.2970   11.1290 N.am    6  LYS6       -0.1977
     36  CA        31.0110   -9.7390   12.0520 C.3     6  LYS6        0.1596
     37  C         32.0010   -8.6360   12.3780 C.2     6  LYS6        0.2287
     38  O         32.5600   -8.5010   13.4670 O.2     6  LYS6       -0.2864
     39  CB        31.7220  -10.9230   11.3890 C.3     6  LYS6        0.0298
     40  CG        32.5770  -11.7860   12.3070 C.3     6  LYS6        0.0038
     41  CD        33.3750  -12.8140   11.5300 C.3     6  LYS6        0.0206
     42  CE        32.5100  -13.7740   10.7330 C.3     6  LYS6        0.1093
     43  NZ        31.8790  -14.8150   11.6030 N.3     6  LYS6       -0.1314
     44  N         31.4240   -5.1930   11.7850 N.3     8  ASN8       -0.1240
     45  CA        30.9050   -3.8420   12.0080 C.3     8  ASN8        0.1653
     46  C         29.6400   -3.8210   12.8590 C.2     8  ASN8        0.2266
     47  O         28.9920   -2.7810   12.9250 O.2     8  ASN8       -0.2867
     48  CB        30.6410   -3.1580   10.6650 C.3     8  ASN8        0.1155
     49  CG        29.5780   -3.7900    9.8030 C.2     8  ASN8        0.2627
     50  OD1       29.0760   -4.8980   10.0160 O.2     8  ASN8       -0.2716
     51  ND2       29.1820   -3.0670    8.7530 N.am    8  ASN8       -0.0877
     52  N         20.2500    0.9350    3.7850 N.3    60  GLY60      -0.1210
     53  CA        21.4180    0.1180    4.0360 C.3    60  GLY60       0.1956
     54  C         21.3950   -0.5780    5.3800 C.2    60  GLY60       0.2611
     55  O         22.2830   -1.4060    5.6250 O.2    60  GLY60      -0.2717
     56  N         20.4310   -0.2730    6.2410 N.am   61  HIS61      -0.1975
     57  CA        20.2740   -0.9360    7.5350 C.3    61  HIS61       0.1656
     58  C         18.8940   -1.5300    7.8010 C.2    61  HIS61       0.2291
     59  O         18.7770   -2.5320    8.5080 O.2    61  HIS61      -0.2864
     60  CB        20.5670    0.0420    8.6940 C.3    61  HIS61       0.0771
     61  CG        21.8480    0.7430    8.3660 C.ar   61  HIS61       0.0820
     62  ND1       23.0690    0.2090    8.7110 N.ar   61  HIS61      -0.2267
     63  CD2       22.0880    1.8890    7.6950 C.ar   61  HIS61       0.1154
     64  CE1       24.0240    1.0240    8.2870 C.ar   61  HIS61       0.1986
     65  NE2       23.4300    2.0260    7.6760 N.ar   61  HIS61      -0.2212
     66  N         21.5460   -5.2710    2.1070 N.3   227  PHE227     -0.1227
     67  CA        22.3540   -4.2830    2.8040 C.3   227  PHE227      0.1736
     68  C         23.2090   -3.4540    1.8420 C.2   227  PHE227      0.2595
     69  O         23.5060   -2.2750    2.0550 O.2   227  PHE227     -0.2718
     70  CB        23.3150   -4.9620    3.7740 C.3   227  PHE227      0.0547
     71  CG        22.7550   -5.4200    5.1050 C.ar  227  PHE227     -0.0202
     72  CD1       21.8780   -4.6300    5.8280 C.ar  227  PHE227     -0.0042
     73  CD2       23.1330   -6.6440    5.6230 C.ar  227  PHE227     -0.0042
     74  CE1       21.4010   -5.0750    7.0470 C.ar  227  PHE227     -0.0003
     75  CE2       22.6550   -7.1060    6.8320 C.ar  227  PHE227     -0.0003
     76  CZ        21.7860   -6.3070    7.5530 C.ar  227  PHE227     -0.0000
     77  N         23.6510   -4.0990    0.7700 N.am  228  ASN228     -0.1974
     78  CA        24.5450   -3.4760   -0.1950 C.3   228  ASN228      0.1688
     79  C         23.8200   -2.6000   -1.2110 C.2   228  ASN228      0.2292
     80  O         22.6050   -2.6180   -1.3650 O.2   228  ASN228     -0.2864
     81  CB        25.3150   -4.5720   -0.9440 C.3   228  ASN228      0.1181
     82  CG        24.3410   -5.5380   -1.5910 C.2   228  ASN228      0.2629
     83  OD1       23.7860   -6.4110   -0.9310 O.2   228  ASN228     -0.2716
     84  ND2       24.1350   -5.3350   -2.8880 N.am  228  ASN228     -0.0877
     85  N         24.6290   -9.0250   -0.1630 N.3   235  GLU235     -0.1231
     86  CA        24.5720   -9.2610    1.2610 C.3   235  GLU235      0.1699
     87  C         23.1290   -9.0550    1.7170 C.2   235  GLU235      0.2592
     88  O         22.6330   -7.9310    1.8180 O.2   235  GLU235     -0.2718
     89  CB        25.5300   -8.3490    2.0240 C.3   235  GLU235      0.0402
     90  CG        25.7340   -8.7790    3.4650 C.3   235  GLU235      0.1161
     91  CD        26.5280  -10.0700    3.5720 C.2   235  GLU235      0.3649
     92  OE1       27.6990  -10.0830    3.1460 O.co2 235  GLU235     -0.2457
     93  OE2       25.9720  -11.0580    4.0970 O.co2 235  GLU235     -0.2457
     94  N         22.4420  -10.1690    1.9560 N.am  236  LEU236     -0.1980
     95  CA        21.0180  -10.1070    2.2740 C.3   236  LEU236      0.1596
     96  C         20.8040   -9.2700    3.5300 C.2   236  LEU236      0.2287
     97  O         21.6170   -9.2960    4.4540 O.2   236  LEU236     -0.2864
     98  CB        20.4580  -11.5200    2.4190 C.3   236  LEU236      0.0297
     99  CG        20.3000  -12.3450    1.1380 C.3   236  LEU236      0.0022
    100  CD1       19.7210  -13.7260    1.4320 C.3   236  LEU236      0.0001
    101  CD2       19.4320  -11.6360    0.1140 C.3   236  LEU236      0.0001
    102  N         19.4010   -9.1460    6.6640 N.3   238  VAL238     -0.1245
    103  CA        18.8570  -10.0010    7.7010 C.3   238  VAL238      0.1561
    104  C         19.6660   -9.8320    8.9910 C.2   238  VAL238      0.2260
    105  O         20.8140   -9.4090    8.9700 O.2   238  VAL238     -0.2867
    106  CB        18.8510  -11.4980    7.3320 C.3   238  VAL238      0.0252
    107  CG1       17.9960  -11.7500    6.0990 C.3   238  VAL238      0.0019
    108  CG2       20.2850  -11.9870    7.1380 C.3   238  VAL238      0.0019
@<TRIPOS>BOND
     1    84    82   am
     2    82    81    1
     3    82    83    2
     4    80    79    2
     5    79    78    1
     6    81    78    1
     7    78    77    1
     8    85    86    1
     9   101    99    1
    10    77    68   am
    11    99   100    1
    12    99    98    1
    13    86    87    1
    14    86    89    1
    15    87    88    2
    16    87    94   am
    17    68    69    2
    18    68    67    1
    19    94    95    1
    20    89    90    1
    21    66    67    1
    22    95    98    1
    23    95    96    1
    24    67    70    1
    25    92    91   ar
    26    90    91    1
    27    96    97    2
    28    91    93   ar
    29    70    71    1
    30    52    53    1
    31    53    54    1
    32    71    73   ar
    33    71    72   ar
    34    54    55    2
    35    54    56   am
    36    73    75   ar
    37    72    74   ar
    38   107   106    1
    39    56    57    1
    40   102   103    1
    41    75    76   ar
    42    74    76   ar
    43   108   106    1
    44   106   103    1
    45    57    58    1
    46    57    60    1
    47    65    63   ar
    48    65    64   ar
    49    63    61   ar
    50   103   104    1
    51    58    59    2
    52    64    62   ar
    53    61    60    1
    54    61    62   ar
    55    51    49   am
    56   105   104    2
    57     4     3    2
    58    49    50    2
    59    49    48    1
    60    32    31    1
    61    32    33    1
    62     1     2    1
    63    16    15    1
    64    16    17    1
    65     3    15   am
    66     3     2    1
    67    31    21   am
    68    48    45    1
    69    42    41    1
    70    42    43    1
    71    19    17   am
    72    19    20    1
    73    26    28   ar
    74    26    24   ar
    75    35    33   am
    76    35    36    1
    77     2     5    1
    78    33    34    2
    79     9    10   ar
    80     9     7   ar
    81    28    29   ar
    82    12    10   ar
    83    12    14   ar
    84    39    36    1
    85    39    40    1
    86    17    18    2
    87    21    20    1
    88    21    22    2
    89    41    40    1
    90    23    20    1
    91    23    24    1
    92    10     8   ar
    93     7     6   ar
    94    14    13   ar
    95    44    45    1
    96    24    25   ar
    97     8     6   ar
    98     8    11   ar
    99     6     5    1
   100    45    46    1
   101    13    11   ar
   102    36    37    1
   103    37    38    2
   104    29    30    1
   105    29    27   ar
   106    46    47    2
   107    25    27   ar
