@<TRIPOS>MOLECULE
tmp/2q3bA03.pdb
 77 74 0 0 0
SMALL
GASTEIGER

@<TRIPOS>ATOM
      1  N        -14.7090    6.6380   -7.7650 N.3    71  SER71      -0.1202
      2  CA       -13.6220    6.7570   -6.7880 C.3    71  SER71       0.2020
      3  C        -13.6940    5.6740   -5.7120 C.2    71  SER71       0.2619
      4  O        -12.9530    5.7320   -4.7240 O.2    71  SER71      -0.2717
      5  CB       -13.6800    8.1300   -6.1040 C.3    71  SER71       0.2103
      6  OG       -14.9230    8.2870   -5.4360 O.3    71  SER71      -0.2182
      7  N        -14.5930    4.7090   -5.8810 N.am   72  GLY72      -0.1942
      8  CA       -14.7720    3.6620   -4.8840 C.3    72  GLY72       0.2014
      9  C        -14.9050    2.2610   -5.4530 C.2    72  GLY72       0.2639
     10  O        -14.3650    1.9380   -6.5110 O.2    72  GLY72      -0.2714
     11  N        -15.6310    1.4220   -4.7260 N.am   73  ASN73      -0.1958
     12  CA       -15.6940   -0.0030   -5.0170 C.3    73  ASN73       0.1819
     13  C        -16.3300   -0.3860   -6.3510 C.2    73  ASN73       0.2621
     14  O        -16.0560   -1.4580   -6.8820 O.2    73  ASN73      -0.2715
     15  CB       -16.4340   -0.7130   -3.8730 C.3    73  ASN73       0.1195
     16  CG       -15.5880   -0.8340   -2.6330 C.2    73  ASN73       0.2630
     17  OD1      -14.3540   -0.9920   -2.7230 O.2    73  ASN73      -0.2716
     18  ND2      -16.2310   -0.7580   -1.4630 N.am   73  ASN73      -0.0877
     19  N        -17.1910    0.4580   -6.8970 N.am   74  THR74      -0.1951
     20  CA       -17.8590    0.1150   -8.1650 C.3    74  THR74       0.1897
     21  C        -16.8610    0.0470   -9.3160 C.2    74  THR74       0.2313
     22  O        -16.9970   -0.7780  -10.2140 O.2    74  THR74      -0.2863
     23  CB       -18.9950    1.0840   -8.4470 C.3    74  THR74       0.1794
     24  OG1      -19.9420    0.9770   -7.3890 O.3    74  THR74      -0.2208
     25  CG2      -19.7020    0.7970   -9.7920 C.3    74  THR74       0.0378
     26  N        -24.3190    3.9730  -11.9020 N.3   143  GLN143     -0.1231
     27  CA       -24.6530    3.2070  -10.7020 C.3   143  GLN143      0.1698
     28  C        -25.7190    3.8540   -9.8160 C.2   143  GLN143      0.2592
     29  O        -26.4300    3.1540   -9.1100 O.2   143  GLN143     -0.2718
     30  CB       -23.4000    2.9330   -9.8800 C.3   143  GLN143      0.0381
     31  CG       -22.7660    4.1720   -9.2920 C.3   143  GLN143      0.0905
     32  CD       -21.6250    3.8340   -8.3680 C.2   143  GLN143      0.2608
     33  OE1      -21.7260    2.9100   -7.5540 O.2   143  GLN143     -0.2717
     34  NE2      -20.5330    4.5800   -8.4780 N.am  143  GLN143     -0.0878
     35  N        -25.8230    5.1860   -9.8440 N.am  144  PHE144     -0.1976
     36  CA       -26.8280    5.8870   -9.0390 C.3   144  PHE144      0.1639
     37  C        -28.2410    5.8560   -9.6240 C.2   144  PHE144      0.2290
     38  O        -29.2010    6.1260   -8.9060 O.2   144  PHE144     -0.2864
     39  CB       -26.4170    7.3380   -8.7780 C.3   144  PHE144      0.0560
     40  CG       -25.3240    7.4810   -7.7610 C.ar  144  PHE144     -0.0200
     41  CD1      -25.6230    7.5430   -6.4050 C.ar  144  PHE144     -0.0042
     42  CD2      -23.9960    7.5400   -8.1510 C.ar  144  PHE144     -0.0042
     43  CE1      -24.6150    7.6720   -5.4680 C.ar  144  PHE144     -0.0003
     44  CE2      -22.9930    7.6690   -7.2220 C.ar  144  PHE144     -0.0003
     45  CZ       -23.2960    7.7310   -5.8830 C.ar  144  PHE144     -0.0000
     46  N        -25.2920    4.5460    0.1360 N.3   177  GLY177     -0.1210
     47  CA       -24.4660    5.2430   -0.8320 C.3   177  GLY177      0.1956
     48  C        -25.3110    5.5550   -2.0360 C.2   177  GLY177      0.2612
     49  O        -25.7890    6.6760   -2.2000 O.2   177  GLY177     -0.2717
     50  N        -25.5040    4.5460   -2.8800 N.am  178  THR178     -0.1952
     51  CA       -26.4940    4.6180   -3.9550 C.3   178  THR178      0.1897
     52  C        -27.9140    4.3440   -3.4480 C.2   178  THR178      0.2313
     53  O        -28.8770    4.7060   -4.1090 O.2   178  THR178     -0.2863
     54  CB       -26.2020    3.6000   -5.0940 C.3   178  THR178      0.1794
     55  OG1      -26.4140    2.2690   -4.6100 O.3   178  THR178     -0.2208
     56  CG2      -24.7940    3.7480   -5.6170 C.3   178  THR178      0.0378
     57  N        -18.0000    5.2240    0.8940 N.3   221  GLY221     -0.1210
     58  CA       -19.0390    4.3170    0.4590 C.3   221  GLY221      0.1956
     59  C        -20.4290    4.8240    0.7530 C.2   221  GLY221      0.2612
     60  O        -21.3770    4.4320    0.0810 O.2   221  GLY221     -0.2717
     61  N        -20.5610    5.6910    1.7620 N.am  222  ILE222     -0.1965
     62  CA       -21.8390    6.3110    2.0780 C.3   222  ILE222      0.1727
     63  C        -21.7260    7.8310    2.0640 C.2   222  ILE222      0.2617
     64  O        -20.6390    8.3750    1.8440 O.2   222  ILE222     -0.2715
     65  CB       -22.4100    5.7930    3.4190 C.3   222  ILE222      0.0290
     66  CG1      -21.5950    6.2810    4.6300 C.3   222  ILE222      0.0022
     67  CG2      -22.4420    4.2560    3.4050 C.3   222  ILE222      0.0023
     68  CD1      -22.1930    5.8970    5.9670 C.3   222  ILE222      0.0001
     69  N        -22.8510    8.5070    2.2600 N.am  223  GLY223     -0.1940
     70  CA       -22.8580    9.9860    2.3650 C.3   223  GLY223      0.2014
     71  C        -22.4900   10.6360    1.0440 C.2   223  GLY223      0.2638
     72  O        -21.4760   11.3330    0.9510 O.2   223  GLY223     -0.2714
     73  N        -23.3000   10.3850    0.0150 N.am  224  ALA224     -0.1977
     74  CA       -23.0340   10.9000   -1.3370 C.3   224  ALA224      0.1597
     75  C        -23.2450   12.4110   -1.4430 C.2   224  ALA224      0.2287
     76  O        -22.7980   13.0200   -2.3970 O.2   224  ALA224     -0.2864
     77  CB       -23.9120   10.2010   -2.3610 C.3   224  ALA224      0.0319
@<TRIPOS>BOND
     1    26    27    1
     2    27    30    1
     3    27    28    1
     4    22    21    2
     5    30    31    1
     6    35    28   am
     7    35    36    1
     8    28    29    2
     9    25    23    1
    10    37    36    1
    11    37    38    2
    12    21    20    1
    13    31    32    1
    14    36    39    1
    15    39    40    1
    16    34    32   am
    17    23    20    1
    18    23    24    1
    19    32    33    2
    20    20    19    1
    21    42    40   ar
    22    42    44   ar
    23     1     2    1
    24    40    41   ar
    25    44    45   ar
    26    19    13   am
    27    14    13    2
    28     2     5    1
    29     2     3    1
    30    10     9    2
    31    41    43   ar
    32    13    12    1
    33     5     6    1
    34    45    43   ar
    35     7     3   am
    36     7     8    1
    37     3     4    2
    38    56    54    1
    39     9     8    1
    40     9    11   am
    41    54    55    1
    42    54    51    1
    43    12    11    1
    44    12    15    1
    45    53    52    2
    46    51    52    1
    47    51    50    1
    48    15    16    1
    49    50    48   am
    50    17    16    2
    51    16    18   am
    52    76    75    2
    53    77    74    1
    54    49    48    2
    55    48    47    1
    56    75    74    1
    57    74    73    1
    58    47    46    1
    59    73    71   am
    60    60    59    2
    61    58    59    1
    62    58    57    1
    63    59    61   am
    64    72    71    2
    65    71    70    1
    66    61    62    1
    67    64    63    2
    68    63    62    1
    69    63    69   am
    70    62    65    1
    71    69    70    1
    72    67    65    1
    73    65    66    1
    74    66    68    1
