@<TRIPOS>MOLECULE
tmp/2q3cA00.pdb
 181 174 0 0 0
SMALL
GASTEIGER

@<TRIPOS>ATOM
      1  N          5.9840  -17.1320   10.9790 N.3    70  THR70      -0.1203
      2  CA         5.3920  -17.0870    9.6470 C.3    70  THR70       0.1994
      3  C          5.3200  -15.6750    9.1060 C.2    70  THR70       0.2619
      4  O          4.8970  -14.7570    9.8000 O.2    70  THR70      -0.2717
      5  CB         3.9730  -17.7360    9.6010 C.3    70  THR70       0.1784
      6  OG1        3.3330  -17.3920    8.3740 O.3    70  THR70      -0.2211
      7  CG2        3.1050  -17.2550   10.7590 C.3    70  THR70       0.0376
      8  N          5.7290  -15.5130    7.8540 N.am   71  SER71      -0.1937
      9  CA         5.5570  -14.2400    7.1740 C.3    71  SER71       0.2055
     10  C          4.4780  -14.3420    6.0860 C.2    71  SER71       0.2644
     11  O          4.3270  -13.4270    5.2630 O.2    71  SER71      -0.2714
     12  CB         6.8760  -13.7760    6.5810 C.3    71  SER71       0.2130
     13  OG         7.1910  -14.5550    5.4570 O.3    71  SER71      -0.2179
     14  N          3.7260  -15.4440    6.1020 N.am   72  GLY72      -0.1939
     15  CA         2.7350  -15.7320    5.0670 C.3    72  GLY72       0.2014
     16  C          1.3050  -15.8030    5.5620 C.2    72  GLY72       0.2639
     17  O          0.9670  -15.2540    6.6120 O.2    72  GLY72      -0.2714
     18  N          0.4660  -16.4920    4.7900 N.am   73  ASN73      -0.1958
     19  CA        -0.9690  -16.6340    5.0840 C.3    73  ASN73       0.1819
     20  C         -1.2890  -17.3710    6.3800 C.2    73  ASN73       0.2621
     21  O         -2.3390  -17.1400    6.9730 O.2    73  ASN73      -0.2715
     22  CB        -1.6930  -17.3200    3.9110 C.3    73  ASN73       0.1195
     23  CG        -1.8450  -16.4120    2.7040 C.2    73  ASN73       0.2630
     24  OD1       -2.1500  -15.2270    2.8440 O.2    73  ASN73      -0.2716
     25  ND2       -1.6640  -16.9710    1.5030 N.am   73  ASN73      -0.0877
     26  N         -0.4080  -18.2610    6.8230 N.am   74  THR74      -0.1951
     27  CA        -0.6470  -18.9720    8.0860 C.3    74  THR74       0.1897
     28  C         -0.7560  -17.9760    9.2390 C.2    74  THR74       0.2313
     29  O         -1.6420  -18.0910   10.0860 O.2    74  THR74      -0.2863
     30  CB         0.4300  -20.0280    8.3650 C.3    74  THR74       0.1794
     31  OG1        0.4730  -20.9330    7.2640 O.3    74  THR74      -0.2208
     32  CG2        0.1350  -20.8120    9.6550 C.3    74  THR74       0.0378
     33  N         10.7190  -12.1420    9.7330 N.3    94  PRO94      -0.2116
     34  CA        11.7870  -11.1850    9.4370 C.3    94  PRO94       0.1372
     35  C         11.2370   -9.7880    9.1540 C.2    94  PRO94       0.2244
     36  O         10.1360   -9.6470    8.6090 O.2    94  PRO94      -0.2868
     37  CB        12.4650  -11.7790    8.1980 C.3    94  PRO94       0.0268
     38  CG        11.4690  -12.7170    7.6130 C.3    94  PRO94       0.0207
     39  CD        10.6690  -13.2420    8.7520 C.3    94  PRO94       0.0892
     40  N         11.8280   -7.9490    6.9470 N.3    96  THR96      -0.1218
     41  CA        11.6190   -7.8180    5.4990 C.3    96  THR96       0.1862
     42  C         10.1370   -7.8680    5.0920 C.2    96  THR96       0.2287
     43  O          9.7870   -7.5270    3.9550 O.2    96  THR96      -0.2866
     44  CB        12.3570   -8.9250    4.7010 C.3    96  THR96       0.1770
     45  OG1       11.9350  -10.2110    5.1630 O.3    96  THR96      -0.2211
     46  CG2       13.8700   -8.8080    4.8420 C.3    96  THR96       0.0375
     47  N          1.2900   -5.9660    5.2370 N.3   101  ARG101     -0.1245
     48  CA         1.1000   -7.2510    5.8910 C.3   101  ARG101      0.1563
     49  C          1.0990   -7.1170    7.4190 C.2   101  ARG101      0.2260
     50  O          0.2850   -7.7350    8.1030 O.2   101  ARG101     -0.2867
     51  CB         2.1840   -8.2250    5.4300 C.3   101  ARG101      0.0307
     52  CG         1.9780   -9.6800    5.8430 C.3   101  ARG101      0.0489
     53  CD         1.0340  -10.4380    4.9290 C.3   101  ARG101      0.2205
     54  NE         1.3900  -10.3430    3.5110 N.pl3 101  ARG101     -0.0865
     55  CZ         2.1190  -11.2360    2.8440 C.cat 101  ARG101      0.5346
     56  NH1        2.5990  -12.3090    3.4590 N.pl3 101  ARG101      0.1354
     57  NH2        2.3680  -11.0550    1.5490 N.pl3 101  ARG101      0.1354
     58  N         16.3750  -13.9770    7.6240 N.3   120  GLY120     -0.1210
     59  CA        15.2530  -14.5920    6.9080 C.3   120  GLY120      0.1956
     60  C         14.3150  -15.3610    7.8140 C.2   120  GLY120      0.2612
     61  O         14.0040  -14.9130    8.9170 O.2   120  GLY120     -0.2717
     62  N         13.8780  -16.5310    7.3570 N.am  121  MET121     -0.1965
     63  CA        12.9390  -17.3330    8.1340 C.3   121  MET121      0.1736
     64  C         13.5980  -18.0710    9.2930 C.2   121  MET121      0.2617
     65  O         12.9770  -18.2390   10.3390 O.2   121  MET121     -0.2715
     66  CB        12.1670  -18.3070    7.2430 C.3   121  MET121      0.0427
     67  CG        10.9390  -17.6980    6.5600 C.3   121  MET121      0.0599
     68  SD         9.7760  -16.8480    7.6680 S.3   121  MET121     -0.1393
     69  CE         9.3350  -18.1320    8.8420 C.3   121  MET121      0.0692
     70  N         14.8440  -18.5120    9.1080 N.am  122  SER122     -0.1950
     71  CA        15.5810  -19.2200   10.1640 C.3   122  SER122      0.1924
     72  C         15.6860  -18.3840   11.4350 C.2   122  SER122      0.2314
     73  O         15.6090  -18.9170   12.5440 O.2   122  SER122     -0.2863
     74  CB        16.9740  -19.6370    9.6820 C.3   122  SER122      0.2116
     75  OG        17.6460  -18.5390    9.1050 O.3   122  SER122     -0.2180
     76  N         12.2500  -18.4540   13.0290 N.3   125  ILE125     -0.1245
     77  CA        12.1050  -19.7650   13.6400 C.3   125  ILE125      0.1561
     78  C         12.9120  -19.8470   14.9340 C.2   125  ILE125      0.2260
     79  O         12.3760  -20.2620   15.9630 O.2   125  ILE125     -0.2867
     80  CB        12.4900  -20.9080   12.6560 C.3   125  ILE125      0.0252
     81  CG1       11.4770  -20.9850   11.5000 C.3   125  ILE125      0.0019
     82  CG2       12.5900  -22.2510   13.3850 C.3   125  ILE125      0.0019
     83  CD1       11.9260  -21.8310   10.2980 C.3   125  ILE125      0.0001
     84  N          3.1420  -25.6380   11.7690 N.3   143  GLN143     -0.1231
     85  CA         2.3890  -25.9500   10.5480 C.3   143  GLN143      0.1698
     86  C          3.0490  -26.9570    9.5930 C.2   143  GLN143      0.2592
     87  O          2.3470  -27.6280    8.8320 O.2   143  GLN143     -0.2718
     88  CB         2.0630  -24.6750    9.7850 C.3   143  GLN143      0.0381
     89  CG         3.2810  -23.9760    9.1640 C.3   143  GLN143      0.0905
     90  CD         2.8830  -22.8160    8.2920 C.2   143  GLN143      0.2608
     91  OE1        1.9140  -22.9060    7.5340 O.2   143  GLN143     -0.2717
     92  NE2        3.6250  -21.7100    8.3900 N.am  143  GLN143     -0.0878
     93  N          4.3800  -27.0480    9.6270 N.am  144  PHE144     -0.1976
     94  CA         5.1140  -27.9640    8.7480 C.3   144  PHE144      0.1639
     95  C          5.1480  -29.3960    9.2770 C.2   144  PHE144      0.2290
     96  O          5.4850  -30.3250    8.5450 O.2   144  PHE144     -0.2864
     97  CB         6.5400  -27.4620    8.4840 C.3   144  PHE144      0.0560
     98  CG         6.6010  -26.2150    7.6430 C.ar  144  PHE144     -0.0200
     99  CD1        6.5000  -26.2900    6.2550 C.ar  144  PHE144     -0.0042
    100  CD2        6.7660  -24.9720    8.2370 C.ar  144  PHE144     -0.0042
    101  CE1        6.5570  -25.1410    5.4660 C.ar  144  PHE144     -0.0003
    102  CE2        6.8180  -23.8030    7.4590 C.ar  144  PHE144     -0.0003
    103  CZ         6.7140  -23.8930    6.0660 C.ar  144  PHE144     -0.0000
    104  N          3.5150  -25.8280   -0.2080 N.3   177  GLY177     -0.1210
    105  CA         4.1340  -24.9810    0.7990 C.3   177  GLY177      0.1956
    106  C          4.4750  -25.8690    1.9740 C.2   177  GLY177      0.2612
    107  O          5.6210  -26.2940    2.1210 O.2   177  GLY177     -0.2717
    108  N          3.4690  -26.1600    2.8010 N.am  178  THR178     -0.1952
    109  CA         3.6070  -27.1600    3.8480 C.3   178  THR178      0.1897
    110  C          3.4380  -28.5600    3.2630 C.2   178  THR178      0.2313
    111  O          3.9130  -29.5240    3.8350 O.2   178  THR178     -0.2863
    112  CB         2.6010  -26.9590    5.0120 C.3   178  THR178      0.1794
    113  OG1        1.2740  -27.2830    4.5790 O.3   178  THR178     -0.2208
    114  CG2        2.6490  -25.5080    5.5630 C.3   178  THR178      0.0378
    115  N         17.7150  -24.8330   -2.4230 N.3   214  LYS214     -0.1245
    116  CA        16.9500  -23.6460   -2.0450 C.3   214  LYS214      0.1561
    117  C         17.4700  -22.3780   -2.7280 C.2   214  LYS214      0.2260
    118  O         18.6830  -22.1710   -2.8420 O.2   214  LYS214     -0.2867
    119  CB        16.9830  -23.4440   -0.5240 C.3   214  LYS214      0.0271
    120  CG        16.2640  -22.1760   -0.0540 C.3   214  LYS214      0.0035
    121  CD        16.0920  -22.1140    1.4520 C.3   214  LYS214      0.0206
    122  CE        15.3480  -20.8400    1.8490 C.3   214  LYS214      0.1093
    123  NZ        15.2150  -20.6760    3.3270 N.3   214  LYS214     -0.1314
    124  N         16.1130  -17.9090   -3.4000 N.3   216  PRO216     -0.2102
    125  CA        15.0860  -16.8840   -3.2230 C.3   216  PRO216      0.1504
    126  C         14.1380  -16.8610   -4.4190 C.2   216  PRO216      0.2575
    127  O         14.5700  -17.1080   -5.5490 O.2   216  PRO216     -0.2718
    128  CB        15.8880  -15.5850   -3.1300 C.3   216  PRO216      0.0282
    129  CG        17.1870  -15.8810   -3.8400 C.3   216  PRO216      0.0208
    130  CD        17.4620  -17.3350   -3.5860 C.3   216  PRO216      0.0893
    131  N         12.8560  -16.6010   -4.1600 N.am  217  HIS217     -0.1976
    132  CA        11.8170  -16.5960   -5.1940 C.3   217  HIS217      0.1656
    133  C         10.6040  -15.8110   -4.6820 C.2   217  HIS217      0.2291
    134  O         10.4110  -15.6970   -3.4650 O.2   217  HIS217     -0.2864
    135  CB        11.4090  -18.0220   -5.5680 C.3   217  HIS217      0.0771
    136  CG        10.6620  -18.7380   -4.4840 C.ar  217  HIS217      0.0820
    137  ND1        9.2960  -18.6320   -4.3240 N.ar  217  HIS217     -0.2267
    138  CD2       11.0910  -19.5640   -3.5020 C.ar  217  HIS217      0.1154
    139  CE1        8.9180  -19.3590   -3.2910 C.ar  217  HIS217      0.1986
    140  NE2        9.9880  -19.9350   -2.7740 N.ar  217  HIS217     -0.2212
    141  N          5.0050  -16.6240   -3.3400 N.3   220  GLN220     -0.1231
    142  CA         4.6430  -16.7150   -1.9390 C.3   220  GLN220      0.1698
    143  C          3.6610  -17.8450   -1.6830 C.2   220  GLN220      0.2593
    144  O          2.7090  -18.0510   -2.4530 O.2   220  GLN220     -0.2718
    145  CB         4.0600  -15.3780   -1.4620 C.3   220  GLN220      0.0381
    146  CG         5.0770  -14.2360   -1.4330 C.3   220  GLN220      0.0905
    147  CD         4.4780  -12.9190   -0.9690 C.2   220  GLN220      0.2608
    148  OE1        3.7660  -12.8520    0.0520 O.2   220  GLN220     -0.2717
    149  NE2        4.7460  -11.8590   -1.7260 N.am  220  GLN220     -0.0878
    150  N          3.9040  -18.5810   -0.6040 N.am  221  GLY221     -0.1942
    151  CA         3.0420  -19.6770   -0.2080 C.3   221  GLY221      0.2014
    152  C          3.6180  -21.0250   -0.5550 C.2   221  GLY221      0.2639
    153  O          3.2610  -22.0270    0.0560 O.2   221  GLY221     -0.2714
    154  N          4.4910  -21.0580   -1.5570 N.am  222  ILE222     -0.1963
    155  CA         5.1680  -22.3030   -1.9390 C.3   222  ILE222      0.1727
    156  C          6.6900  -22.1470   -1.8360 C.2   222  ILE222      0.2617
    157  O          7.1790  -21.0760   -1.4770 O.2   222  ILE222     -0.2715
    158  CB         4.7230  -22.8170   -3.3460 C.3   222  ILE222      0.0290
    159  CG1        5.3420  -21.9950   -4.4860 C.3   222  ILE222      0.0022
    160  CG2        3.1830  -22.8540   -3.4570 C.3   222  ILE222      0.0023
    161  CD1        5.1060  -22.5950   -5.8790 C.3   222  ILE222      0.0001
    162  N          7.4300  -23.2170   -2.1110 N.am  223  GLY223     -0.1940
    163  CA         8.8990  -23.1670   -2.1020 C.3   223  GLY223      0.2014
    164  C          9.5230  -22.8470   -0.7580 C.2   223  GLY223      0.2638
    165  O         10.1720  -21.7970   -0.5910 O.2   223  GLY223     -0.2714
    166  N          9.3360  -23.7580    0.1970 N.am  224  ALA224     -0.1977
    167  CA         9.8660  -23.6120    1.5540 C.3   224  ALA224      0.1597
    168  C         11.3900  -23.7640    1.6300 C.2   224  ALA224      0.2287
    169  O         12.0040  -23.4060    2.6380 O.2   224  ALA224     -0.2864
    170  CB         9.1930  -24.6250    2.4950 C.3   224  ALA224      0.0319
    171  N         12.8720  -26.6850    1.6980 N.3   226  PHE226     -0.1241
    172  CA        13.1200  -27.9880    2.3300 C.3   226  PHE226      0.1605
    173  C         11.9220  -28.8960    2.0720 C.2   226  PHE226      0.2264
    174  O         10.8630  -28.4240    1.6590 O.2   226  PHE226     -0.2867
    175  CB        13.3850  -27.8560    3.8480 C.3   226  PHE226      0.0534
    176  CG        12.2390  -27.2580    4.6240 C.ar  226  PHE226     -0.0203
    177  CD1       12.1900  -25.8910    4.8760 C.ar  226  PHE226     -0.0042
    178  CD2       11.2130  -28.0580    5.1020 C.ar  226  PHE226     -0.0042
    179  CE1       11.1410  -25.3340    5.5810 C.ar  226  PHE226     -0.0003
    180  CE2       10.1440  -27.5050    5.8060 C.ar  226  PHE226     -0.0003
    181  CZ        10.1100  -26.1410    6.0470 C.ar  226  PHE226     -0.0000
@<TRIPOS>BOND
     1   161   159    1
     2   135   132    1
     3   135   136    1
     4   127   126    2
     5   132   133    1
     6   132   131    1
     7   133   134    2
     8   159   158    1
     9   136   137   ar
    10   136   138   ar
    11   126   131   am
    12   126   125    1
    13   137   139   ar
    14   129   130    1
    15   129   128    1
    16   130   124    1
    17   138   140   ar
    18   160   158    1
    19   124   125    1
    20   158   155    1
    21   141   142    1
    22   139   140   ar
    23   125   128    1
    24   118   117    2
    25   117   116    1
    26   144   143    2
    27   115   116    1
    28   162   163    1
    29   162   156   am
    30   163   164    1
    31   116   119    1
    32   142   143    1
    33   142   145    1
    34   155   156    1
    35   155   154    1
    36   156   157    2
    37   149   147   am
    38   143   150   am
    39   154   152   am
    40   145   146    1
    41   146   147    1
    42   147   148    2
    43   164   165    2
    44   164   166   am
    45   150   151    1
    46   152   151    1
    47   152   153    2
    48   119   120    1
    49   104   105    1
    50   120   121    1
    51   166   167    1
    52   105   106    1
    53   121   122    1
    54    25    23   am
    55    57    55    1
    56   167   168    1
    57   167   170    1
    58   168   169    2
    59   174   173    2
    60   171   172    1
    61   122   123    1
    62   106   107    2
    63   106   108   am
    64   173   172    1
    65   172   175    1
    66    23    24    2
    67    23    22    1
    68   108   109    1
    69    55    56    1
    70    55    54    2
    71   110   111    2
    72   110   109    1
    73    54    53    1
    74   175   176    1
    75   109   112    1
    76    22    19    1
    77    43    42    2
    78   113   112    1
    79   176   177   ar
    80   176   178   ar
    81    44    46    1
    82    44    45    1
    83    44    41    1
    84    18    19    1
    85    18    16   am
    86   177   179   ar
    87    53    52    1
    88   112   114    1
    89    15    16    1
    90    15    14    1
    91    19    20    1
    92    42    41    1
    93   178   180   ar
    94    47    48    1
    95    11    10    2
    96    51    52    1
    97    51    48    1
    98    13    12    1
    99   101   103   ar
   100   101    99   ar
   101    41    40    1
   102    16    17    2
   103   179   181   ar
   104   180   181   ar
   105    48    49    1
   106   103   102   ar
   107    10    14   am
   108    10     9    1
   109    99    98   ar
   110    20    26   am
   111    20    21    2
   112    67    66    1
   113    67    68    1
   114    12     9    1
   115    26    27    1
   116    59    58    1
   117    59    60    1
   118     9     8    1
   119    66    63    1
   120    31    30    1
   121    62    60   am
   122    62    63    1
   123    49    50    2
   124   102   100   ar
   125    91    90    2
   126    38    37    1
   127    38    39    1
   128    98   100   ar
   129    98    97    1
   130    68    69    1
   131    60    61    2
   132     8     3   am
   133    27    30    1
   134    27    28    1
   135    63    64    1
   136    37    34    1
   137    90    92   am
   138    90    89    1
   139    30    32    1
   140     6     5    1
   141    97    94    1
   142    96    95    2
   143    36    35    2
   144    94    95    1
   145    94    93    1
   146    39    33    1
   147    87    86    2
   148    75    74    1
   149     3     2    1
   150     3     4    2
   151    70    64   am
   152    70    71    1
   153    35    34    1
   154    89    88    1
   155    28    29    2
   156    64    65    2
   157    34    33    1
   158    86    93   am
   159    86    85    1
   160     5     2    1
   161     5     7    1
   162     2     1    1
   163    74    71    1
   164    88    85    1
   165    71    72    1
   166    83    81    1
   167    85    84    1
   168    72    73    2
   169    81    80    1
   170    80    82    1
   171    80    77    1
   172    76    77    1
   173    77    78    1
   174    78    79    2
