@<TRIPOS>MOLECULE
tmp/2q3dA00.pdb
 192 184 0 0 0
SMALL
GASTEIGER

@<TRIPOS>ATOM
      1  N         43.5880   14.4340   44.3230 N.3    43  VAL43      -0.1231
      2  CA        43.5920   13.0120   44.0110 C.3    43  VAL43       0.1692
      3  C         43.1460   12.7460   42.5620 C.2    43  VAL43       0.2591
      4  O         43.6700   11.8490   41.9080 O.2    43  VAL43      -0.2718
      5  CB        42.7020   12.2330   45.0230 C.3    43  VAL43       0.0266
      6  CG1       41.2410   12.7090   44.9680 C.3    43  VAL43       0.0020
      7  CG2       42.8000   10.7390   44.8150 C.3    43  VAL43       0.0020
      8  N         42.1890   13.5250   42.0690 N.am   44  LYS44      -0.1980
      9  CA        41.5290   13.2040   40.8040 C.3    44  LYS44       0.1596
     10  C         42.4300   13.3840   39.5870 C.2    44  LYS44       0.2287
     11  O         42.1020   12.8900   38.5170 O.2    44  LYS44      -0.2864
     12  CB        40.1840   13.9440   40.6450 C.3    44  LYS44       0.0298
     13  CG        39.2240   13.7460   41.8260 C.3    44  LYS44       0.0038
     14  CD        38.8470   12.2720   42.1130 C.3    44  LYS44       0.0206
     15  CE        37.7550   11.7990   41.1780 C.3    44  LYS44       0.1093
     16  NZ        37.2520   10.3840   41.3790 N.3    44  LYS44      -0.1314
     17  N         31.1530   16.1170   36.5880 N.3    71  THR71      -0.1203
     18  CA        32.0560   16.2590   37.7200 C.3    71  THR71       0.1994
     19  C         31.4980   17.1540   38.8360 C.2    71  THR71       0.2618
     20  O         30.6540   18.0050   38.6040 O.2    71  THR71      -0.2717
     21  CB        33.4820   16.7040   37.2740 C.3    71  THR71       0.1784
     22  OG1       34.3560   16.6900   38.4060 O.3    71  THR71      -0.2211
     23  CG2       33.4620   18.0890   36.6690 C.3    71  THR71       0.0376
     24  N         31.9640   16.9360   40.0580 N.am   72  SER72      -0.1951
     25  CA        31.6810   17.8820   41.1270 C.3    72  SER72       0.1924
     26  C         32.8600   18.8560   41.2160 C.2    72  SER72       0.2314
     27  O         32.8950   19.6950   42.1130 O.2    72  SER72      -0.2863
     28  CB        31.4770   17.1710   42.4610 C.3    72  SER72       0.2116
     29  OG        32.6780   16.5550   42.8830 O.3    72  SER72      -0.2180
     30  N         36.7590   18.3850   40.7830 N.3    74  ASN74      -0.1225
     31  CA        38.1460   17.9550   40.7180 C.3    74  ASN74       0.1785
     32  C         38.5270   17.0550   39.5130 C.2    74  ASN74       0.2597
     33  O         39.5720   17.2500   38.9040 O.2    74  ASN74      -0.2718
     34  CB        38.5820   17.3180   42.0430 C.3    74  ASN74       0.1169
     35  CG        38.9760   18.3460   43.1170 C.2    74  ASN74       0.2627
     36  OD1       39.3950   19.4940   42.8340 O.2    74  ASN74      -0.2716
     37  ND2       38.8400   17.9230   44.3770 N.am   74  ASN74      -0.0877
     38  N         37.7190   16.0560   39.1890 N.am   75  THR75      -0.1953
     39  CA        37.9510   15.2790   37.9610 C.3    75  THR75       0.1897
     40  C         37.9150   16.2120   36.7370 C.2    75  THR75       0.2313
     41  O         38.7370   16.0760   35.8220 O.2    75  THR75      -0.2863
     42  CB        36.8900   14.1890   37.7730 C.3    75  THR75       0.1794
     43  OG1       36.8350   13.3910   38.9540 O.3    75  THR75      -0.2208
     44  CG2       37.2050   13.2930   36.5580 C.3    75  THR75       0.0378
     45  N         36.1480   26.1320   41.2870 N.3   102  ARG102     -0.1245
     46  CA        36.1640   25.0320   40.3420 C.3   102  ARG102      0.1563
     47  C         35.7880   25.5770   38.9780 C.2   102  ARG102      0.2260
     48  O         36.4010   25.2330   37.9740 O.2   102  ARG102     -0.2867
     49  CB        35.1910   23.9530   40.7780 C.3   102  ARG102      0.0307
     50  CG        35.7630   22.9860   41.7740 C.3   102  ARG102      0.0489
     51  CD        34.6980   22.4680   42.6960 C.3   102  ARG102      0.2205
     52  NE        35.2670   22.1480   44.0070 N.pl3 102  ARG102     -0.0865
     53  CZ        35.2530   20.9410   44.5410 C.cat 102  ARG102      0.5346
     54  NH1       34.6950   19.9520   43.8840 N.pl3 102  ARG102      0.1354
     55  NH2       35.7750   20.7230   45.7200 N.pl3 102  ARG102      0.1354
     56  N         24.8160   15.6740   41.7080 N.3   122  MET122     -0.1245
     57  CA        25.6120   14.8680   40.7730 C.3   122  MET122      0.1570
     58  C         24.8070   14.0180   39.7810 C.2   122  MET122      0.2261
     59  O         25.2860   13.7700   38.6790 O.2   122  MET122     -0.2867
     60  CB        26.6130   13.9780   41.5160 C.3   122  MET122      0.0387
     61  CG        27.9250   14.6730   41.8780 C.3   122  MET122      0.0595
     62  SD        28.6820   15.6470   40.5480 S.3   122  MET122     -0.1393
     63  CE        29.1100   14.3870   39.3260 C.3   122  MET122      0.0692
     64  N         33.6900    8.6930   34.9890 N.3   144  GLN144     -0.1231
     65  CA        34.4420    8.2900   36.1850 C.3   144  GLN144      0.1698
     66  C         33.7040    7.3470   37.1240 C.2   144  GLN144      0.2592
     67  O         34.3190    6.5380   37.8060 O.2   144  GLN144     -0.2718
     68  CB        34.8960    9.5180   36.9690 C.3   144  GLN144      0.0381
     69  CG        33.8120   10.5130   37.3100 C.3   144  GLN144      0.0905
     70  CD        34.3150   11.5720   38.2550 C.2   144  GLN144      0.2608
     71  OE1       35.2520   11.3360   39.0400 O.2   144  GLN144     -0.2717
     72  NE2       33.7030   12.7400   38.2050 N.am  144  GLN144     -0.0878
     73  N         32.3870    7.4270   37.1460 N.am  145  PHE145     -0.1976
     74  CA        31.6070    6.5660   38.0180 C.3   145  PHE145      0.1639
     75  C         31.4860    5.1420   37.4860 C.2   145  PHE145      0.2290
     76  O         30.9630    4.2720   38.1840 O.2   145  PHE145     -0.2864
     77  CB        30.2200    7.1670   38.2480 C.3   145  PHE145      0.0560
     78  CG        30.2510    8.4730   38.9770 C.ar  145  PHE145     -0.0200
     79  CD1       30.2300    8.5040   40.3690 C.ar  145  PHE145     -0.0042
     80  CD2       30.3150    9.6710   38.2760 C.ar  145  PHE145     -0.0042
     81  CE1       30.2680    9.6930   41.0460 C.ar  145  PHE145     -0.0003
     82  CE2       30.3430   10.8840   38.9500 C.ar  145  PHE145     -0.0003
     83  CZ        30.3270   10.8980   40.3400 C.ar  145  PHE145     -0.0000
     84  N         44.3660    3.4920   40.7660 N.3   154  HIS154     -0.1241
     85  CA        44.5490    3.5000   42.2020 C.3   154  HIS154      0.1621
     86  C         45.2460    2.2400   42.6920 C.2   154  HIS154      0.2264
     87  O         45.9100    2.2880   43.7150 O.2   154  HIS154     -0.2867
     88  CB        43.2270    3.7260   42.9160 C.3   154  HIS154      0.0745
     89  CG        42.7790    5.1430   42.8720 C.ar  154  HIS154      0.0817
     90  ND1       43.5010    6.1630   43.4500 N.ar  154  HIS154     -0.2268
     91  CD2       41.7060    5.7220   42.2900 C.ar  154  HIS154      0.1154
     92  CE1       42.8830    7.3100   43.2390 C.ar  154  HIS154      0.1986
     93  NE2       41.7950    7.0700   42.5330 N.ar  154  HIS154     -0.2212
     94  N         36.9270    9.1190   51.9990 N.3   176  GLY176     -0.1210
     95  CA        35.6450    9.5910   51.4900 C.3   176  GLY176      0.1956
     96  C         35.3960    8.9260   50.1430 C.2   176  GLY176      0.2612
     97  O         36.3510    8.5940   49.4250 O.2   176  GLY176     -0.2717
     98  N         34.1170    8.7350   49.8220 N.am  177  VAL177     -0.1965
     99  CA        33.6830    8.0530   48.6040 C.3   177  VAL177      0.1727
    100  C         32.8650    8.9690   47.6950 C.2   177  VAL177      0.2617
    101  O         31.7550    9.3960   48.0500 O.2   177  VAL177     -0.2715
    102  CB        32.8560    6.7630   48.9450 C.3   177  VAL177      0.0290
    103  CG1       32.0240    6.2900   47.7560 C.3   177  VAL177      0.0023
    104  CG2       33.7970    5.6570   49.4170 C.3   177  VAL177      0.0023
    105  N         33.4100    9.2740   46.5230 N.am  178  GLY178     -0.1940
    106  CA        32.6610   10.0030   45.5020 C.3   178  GLY178      0.2014
    107  C         32.2340    9.0040   44.4530 C.2   178  GLY178      0.2640
    108  O         31.0450    8.6170   44.3690 O.2   178  GLY178     -0.2714
    109  N         33.2270    8.5750   43.6730 N.am  179  THR179     -0.1936
    110  CA        33.0810    7.4720   42.7390 C.3   179  THR179      0.2028
    111  C         33.4150    6.1710   43.4560 C.2   179  THR179      0.2643
    112  O         33.0000    5.1000   43.0230 O.2   179  THR179     -0.2714
    113  CB        34.0270    7.6060   41.5290 C.3   179  THR179      0.1808
    114  OG1       35.3570    7.4260   41.9740 O.3   179  THR179     -0.2208
    115  CG2       33.9340    8.9720   40.8670 C.3   179  THR179      0.0379
    116  N         34.1660    6.2790   44.5520 N.am  180  GLY180     -0.1939
    117  CA        34.6570    5.1180   45.2960 C.3   180  GLY180      0.2014
    118  C         35.8850    4.4640   44.6740 C.2   180  GLY180      0.2639
    119  O         36.3100    3.3870   45.0990 O.2   180  GLY180     -0.2714
    120  N         36.4760    5.1350   43.6800 N.am  181  GLY181     -0.1939
    121  CA        37.5940    4.5890   42.9440 C.3   181  GLY181      0.2014
    122  C         38.8020    4.5130   43.8380 C.2   181  GLY181      0.2640
    123  O         39.5550    3.5350   43.7780 O.2   181  GLY181     -0.2714
    124  N         38.9980    5.5410   44.6670 N.am  182  THR182     -0.1936
    125  CA        40.1680    5.5870   45.5460 C.3   182  THR182      0.2028
    126  C         40.0960    4.4200   46.4870 C.2   182  THR182      0.2642
    127  O         40.9900    3.5900   46.4900 O.2   182  THR182     -0.2714
    128  CB        40.2920    6.8750   46.3950 C.3   182  THR182      0.1808
    129  OG1       40.3350    8.0210   45.5420 O.3   182  THR182     -0.2208
    130  CG2       41.5840    6.8440   47.2390 C.3   182  THR182      0.0379
    131  N         39.0330    4.3400   47.2800 N.am  183  ILE183     -0.1977
    132  CA        38.9590    3.2860   48.2830 C.3   183  ILE183      0.1596
    133  C         38.9940    1.8770   47.6450 C.2   183  ILE183      0.2287
    134  O         39.7110    0.9950   48.1240 O.2   183  ILE183     -0.2864
    135  CB        37.8050    3.5060   49.2810 C.3   183  ILE183      0.0276
    136  CG1       38.1170    2.7820   50.5980 C.3   183  ILE183      0.0022
    137  CG2       36.4480    3.1300   48.6770 C.3   183  ILE183      0.0022
    138  CD1       37.0440    2.9830   51.6270 C.3   183  ILE183      0.0001
    139  N         31.7030   18.6670   49.2970 N.3   221  GLN221     -0.1231
    140  CA        31.9550   18.5590   47.8690 C.3   221  GLN221      0.1698
    141  C         32.9420   17.4510   47.5830 C.2   221  GLN221      0.2593
    142  O         33.9870   17.3530   48.2240 O.2   221  GLN221     -0.2718
    143  CB        32.5200   19.8470   47.3510 C.3   221  GLN221      0.0381
    144  CG        31.7360   21.0770   47.7920 C.3   221  GLN221      0.0905
    145  CD        32.0580   22.2720   46.9490 C.2   221  GLN221      0.2608
    146  OE1       32.6520   22.1370   45.8700 O.2   221  GLN221     -0.2717
    147  NE2       31.6700   23.4620   47.4210 N.am  221  GLN221     -0.0878
    148  N         32.5840   16.6160   46.6190 N.am  222  GLY222     -0.1942
    149  CA        33.4200   15.5310   46.1960 C.3   222  GLY222      0.2014
    150  C         32.8480   14.2080   46.6050 C.2   222  GLY222      0.2638
    151  O         33.0920   13.2050   45.9300 O.2   222  GLY222     -0.2714
    152  N         32.1180   14.1670   47.7210 N.am  223  ILE223     -0.1977
    153  CA        31.5850   12.8890   48.1920 C.3   223  ILE223      0.1596
    154  C         30.0870   12.9860   48.2960 C.2   223  ILE223      0.2287
    155  O         29.5290   14.0470   48.0220 O.2   223  ILE223     -0.2864
    156  CB        32.2280   12.4220   49.5250 C.3   223  ILE223      0.0276
    157  CG1       31.7810   13.3080   50.7010 C.3   223  ILE223      0.0022
    158  CG2       33.7590   12.3480   49.3810 C.3   223  ILE223      0.0022
    159  CD1       32.1250   12.7430   52.0750 C.3   223  ILE223      0.0001
    160  N         36.0380   17.6060   52.3410 N.3   266  SER266     -0.1217
    161  CA        36.0110   16.1400   52.3060 C.3   266  SER266      0.1889
    162  C         37.1800   15.4950   53.0980 C.2   266  SER266      0.2288
    163  O         37.1020   14.3410   53.5760 O.2   266  SER266     -0.2866
    164  CB        36.0120   15.6900   50.8320 C.3   266  SER266      0.2089
    165  OG        37.3490   15.4320   50.3450 O.3   266  SER266     -0.2183
    166  N         41.9570   14.3620   50.1070 N.3   293  PRO293     -0.2102
    167  CA        41.8610   14.5340   48.6390 C.3   293  PRO293      0.1504
    168  C         42.3660   15.8200   47.9710 C.2   293  PRO293      0.2575
    169  O         42.8180   15.7370   46.8230 O.2   293  PRO293     -0.2718
    170  CB        40.3350   14.3800   48.3590 C.3   293  PRO293      0.0282
    171  CG        39.8110   13.5850   49.5140 C.3   293  PRO293      0.0208
    172  CD        40.6080   14.1530   50.6900 C.3   293  PRO293      0.0893
    173  N         42.2380   16.9840   48.6170 N.am  294  ASP294     -0.1974
    174  CA        42.5830   18.2570   47.9790 C.3   294  ASP294      0.1708
    175  C         42.9030   19.4140   48.9540 C.2   294  ASP294      0.2293
    176  O         42.9040   19.2360   50.1760 O.2   294  ASP294     -0.2864
    177  CB        41.5250   18.6690   46.9410 C.3   294  ASP294      0.1436
    178  CG        40.2030   19.1220   47.5620 C.2   294  ASP294      0.3671
    179  OD1       40.0360   19.0740   48.8040 O.co2 294  ASP294     -0.2456
    180  OD2       39.2930   19.5130   46.7900 O.co2 294  ASP294     -0.2456
    181  N         38.3760   26.5180   48.1640 N.3   299  TYR299     -0.1241
    182  CA        37.1590   26.5400   48.9600 C.3   299  TYR299      0.1605
    183  C         36.9420   27.8900   49.6380 C.2   299  TYR299      0.2264
    184  O         36.1080   27.9970   50.5250 O.2   299  TYR299     -0.2867
    185  CB        37.1990   25.4440   50.0220 C.3   299  TYR299      0.0534
    186  CG        37.2080   24.0500   49.4330 C.ar  299  TYR299     -0.0201
    187  CD1       36.0190   23.3530   49.2010 C.ar  299  TYR299     -0.0009
    188  CD2       38.4140   23.4150   49.0970 C.ar  299  TYR299     -0.0009
    189  CE1       36.0280   22.0550   48.6250 C.ar  299  TYR299      0.0417
    190  CE2       38.4170   22.1110   48.5330 C.ar  299  TYR299      0.0417
    191  CZ        37.2280   21.4560   48.3140 C.ar  299  TYR299      0.1957
    192  OH        37.2540   20.1790   47.7520 O.3   299  TYR299     -0.2866
@<TRIPOS>BOND
     1    64    65    1
     2    41    40    2
     3    65    68    1
     4    65    66    1
     5    44    42    1
     6    17    18    1
     7    23    21    1
     8    40    39    1
     9    68    69    1
    10    66    73   am
    11    66    67    2
    12    73    74    1
    13    21    18    1
    14    21    22    1
    15    69    70    1
    16    75    74    1
    17    75    76    2
    18    18    19    1
    19    42    39    1
    20    42    43    1
    21    39    38    1
    22    48    47    2
    23    74    77    1
    24    72    70   am
    25    77    78    1
    26    70    71    2
    27    80    82   ar
    28    80    78   ar
    29    11    10    2
    30    20    19    2
    31    59    58    2
    32    19    24   am
    33    33    32    2
    34    82    83   ar
    35    78    79   ar
    36    47    46    1
    37    38    32   am
    38    63    62    1
    39    32    31    1
    40    10     9    1
    41    58    57    1
    42    24    25    1
    43    83    81   ar
    44    46    49    1
    45    46    45    1
    46    79    81   ar
    47    62    61    1
    48    12     9    1
    49    12    13    1
    50    31    30    1
    51    31    34    1
    52    84    85    1
    53    57    60    1
    54    57    56    1
    55    49    50    1
    56     9     8    1
    57   115   113    1
    58    25    26    1
    59    25    28    1
    60    15    16    1
    61    15    14    1
    62    26    27    2
    63    60    61    1
    64   113   114    1
    65   113   110    1
    66    50    51    1
    67    13    14    1
    68     4     3    2
    69    34    35    1
    70     8     3   am
    71    85    86    1
    72    85    88    1
    73    91    93   ar
    74    91    89   ar
    75    28    29    1
    76    93    92   ar
    77     3     2    1
    78    86    87    2
    79    51    52    1
    80   110   111    1
    81   110   109    1
    82    36    35    2
    83    89    88    1
    84    89    90   ar
    85   121   120    1
    86   121   122    1
    87   112   111    2
    88    35    37   am
    89    92    90   ar
    90   111   116   am
    91   109   107   am
    92   120   118   am
    93   123   122    2
    94   122   124   am
    95    54    53    1
    96    52    53    2
    97     2     1    1
    98     2     5    1
    99   108   107    2
   100   107   106    1
   101    53    55    1
   102   116   117    1
   103   124   125    1
   104   118   119    2
   105   118   117    1
   106     7     5    1
   107     6     5    1
   108   106   105    1
   109   129   128    1
   110   125   128    1
   111   125   126    1
   112   146   145    2
   113   151   150    2
   114   149   150    1
   115   149   148    1
   116   128   130    1
   117   126   127    2
   118   126   131   am
   119   105   100   am
   120   150   152   am
   121   148   141   am
   122   180   178   ar
   123   169   168    2
   124   177   178    1
   125   177   174    1
   126   145   147   am
   127   145   144    1
   128   131   132    1
   129   143   144    1
   130   143   140    1
   131   178   179   ar
   132   141   140    1
   133   141   142    2
   134   133   134    2
   135   133   132    1
   136   100   101    2
   137   100    99    1
   138   152   153    1
   139   192   191    1
   140   103   102    1
   141   140   139    1
   142   168   173   am
   143   168   167    1
   144   174   173    1
   145   174   175    1
   146   155   154    2
   147   181   182    1
   148   153   154    1
   149   153   156    1
   150   132   135    1
   151   191   190   ar
   152   191   189   ar
   153   170   167    1
   154   170   171    1
   155   190   188   ar
   156    99   102    1
   157    99    98    1
   158   189   187   ar
   159   167   166    1
   160   137   135    1
   161   102   104    1
   162   175   176    2
   163   182   183    1
   164   182   185    1
   165   188   186   ar
   166   187   186   ar
   167   135   136    1
   168   158   156    1
   169    97    96    2
   170   186   185    1
   171   171   172    1
   172   156   157    1
   173   183   184    2
   174    98    96   am
   175   166   172    1
   176    96    95    1
   177   165   164    1
   178   136   138    1
   179   157   159    1
   180   164   161    1
   181    95    94    1
   182   161   160    1
   183   161   162    1
   184   162   163    2
