@<TRIPOS>MOLECULE
tmp/2q3hA00.pdb
 110 104 0 0 0
SMALL
GASTEIGER

@<TRIPOS>ATOM
      1  N         12.5740  -12.1780    7.3620 N.3    10  GLY10      -0.1210
      2  CA        11.6700  -12.9060    8.2370 C.3    10  GLY10       0.1956
      3  C         12.4490  -13.4870    9.3960 C.2    10  GLY10       0.2612
      4  O         13.6160  -13.8780    9.2310 O.2    10  GLY10      -0.2717
      5  N         11.8210  -13.4710   10.5720 N.am   11  ALA11      -0.1965
      6  CA        12.3230  -14.0930   11.7900 C.3    11  ALA11       0.1728
      7  C         13.4430  -13.3630   12.5400 C.2    11  ALA11       0.2616
      8  O         13.9890  -13.9200   13.4940 O.2    11  ALA11      -0.2715
      9  CB        12.7600  -15.5780   11.5040 C.3    11  ALA11       0.0334
     10  N         13.8290  -12.1620   12.1130 N.am   12  VAL12      -0.1963
     11  CA        14.8580  -11.4120   12.8110 C.3    12  VAL12       0.1727
     12  C         14.3690  -10.8220   14.1350 C.2    12  VAL12       0.2617
     13  O         15.1900  -10.5450   15.0100 O.2    12  VAL12      -0.2715
     14  CB        15.5450  -10.3140   11.9280 C.3    12  VAL12       0.0290
     15  CG1       16.1800  -10.9500   10.6680 C.3    12  VAL12       0.0023
     16  CG2       14.6290   -9.2150   11.5280 C.3    12  VAL12       0.0023
     17  N         13.0650  -10.5880   14.2360 N.am   13  GLY13      -0.1940
     18  CA        12.4560  -10.0360   15.4680 C.3    13  GLY13       0.2014
     19  C         11.7810   -8.6670   15.3480 C.2    13  GLY13       0.2639
     20  O         11.6430   -7.9680   16.3880 O.2    13  GLY13      -0.2714
     21  N         11.3440   -8.3060   14.1450 N.am   14  LYS14      -0.1963
     22  CA        10.6810   -7.0070   13.9000 C.3    14  LYS14       0.1728
     23  C          9.4160   -6.8390   14.7230 C.2    14  LYS14       0.2617
     24  O          9.2410   -5.8490   15.4350 O.2    14  LYS14      -0.2715
     25  CB        10.3880   -6.7960   12.4050 C.3    14  LYS14       0.0311
     26  CG        11.6130   -6.9540   11.4770 C.3    14  LYS14       0.0038
     27  CD        11.2300   -6.7680   10.0090 C.3    14  LYS14       0.0206
     28  CE        10.3840   -7.9370    9.4360 C.3    14  LYS14       0.1093
     29  NZ        11.0250   -9.2930    9.5420 N.3    14  LYS14      -0.1314
     30  N          8.5290   -7.8140   14.6390 N.am   15  THR15      -0.1937
     31  CA         7.2440   -7.7510   15.3230 C.3    15  THR15       0.2028
     32  C          7.4330   -7.7310   16.8610 C.2    15  THR15       0.2642
     33  O          6.8330   -6.9250   17.5700 O.2    15  THR15      -0.2714
     34  CB         6.3430   -8.9180   14.8890 C.3    15  THR15       0.1808
     35  OG1        6.1160   -8.9060   13.4450 O.3    15  THR15      -0.2208
     36  CG2        4.9670   -8.7920   15.6130 C.3    15  THR15       0.0379
     37  N          8.3290   -8.5850   17.3500 N.am   16  SER16      -0.1949
     38  CA         8.7320   -8.6090   18.7510 C.3    16  SER16       0.1924
     39  C          9.2750   -7.2930   19.2640 C.2    16  SER16       0.2314
     40  O          9.0140   -6.8930   20.3820 O.2    16  SER16      -0.2863
     41  CB         9.7950   -9.6970   18.9730 C.3    16  SER16       0.2116
     42  OG         9.2880  -10.9880   18.7110 O.3    16  SER16      -0.2180
     43  N          4.7960   -2.5410   10.7030 N.3    47  ASP47      -0.1239
     44  CA         5.5610   -3.7700   10.7720 C.3    47  ASP47       0.1674
     45  C          5.2810   -4.4380    9.4430 C.2    47  ASP47       0.2266
     46  O          4.1270   -4.5250    9.0290 O.2    47  ASP47      -0.2867
     47  CB         5.0200   -4.5830   11.9190 C.3    47  ASP47       0.1410
     48  CG         5.7870   -5.8250   12.1520 C.2    47  ASP47       0.3668
     49  OD1        6.9380   -5.9080   11.6650 O.co2  47  ASP47      -0.2456
     50  OD2        5.1760   -6.7270   12.7610 O.co2  47  ASP47      -0.2456
     51  N          9.4930  -11.5010    3.6920 N.3    51  GLN51      -0.1245
     52  CA         9.6840  -12.6340    2.7810 C.3    51  GLN51       0.1566
     53  C          9.6160  -12.1510    1.3590 C.2    51  GLN51       0.2260
     54  O          8.9750  -11.1390    1.0730 O.2    51  GLN51      -0.2867
     55  CB         8.6810  -13.7590    3.0450 C.3    51  GLN51       0.0367
     56  CG         8.9360  -14.4840    4.3960 C.3    51  GLN51       0.0905
     57  CD         8.4690  -13.6630    5.6110 C.2    51  GLN51       0.2608
     58  OE1        7.7760  -12.6610    5.4660 O.2    51  GLN51      -0.2717
     59  NE2        8.8620  -14.0890    6.8060 N.am   51  GLN51      -0.0878
     60  N         19.1180   -7.0380   16.0970 N.3   105  THR105     -0.1203
     61  CA        18.1600   -7.6330   17.0130 C.3   105  THR105      0.1994
     62  C         18.6460   -8.9250   17.6880 C.2   105  THR105      0.2617
     63  O         19.6690   -9.4810   17.2990 O.2   105  THR105     -0.2717
     64  CB        16.8480   -7.9760   16.2780 C.3   105  THR105      0.1784
     65  OG1       17.1270   -8.9250   15.2390 O.3   105  THR105     -0.2211
     66  CG2       16.2630   -6.7260   15.6240 C.3   105  THR105      0.0376
     67  N         17.8930   -9.3880   18.6930 N.am  106  GLN106     -0.1979
     68  CA        18.1890  -10.6320   19.3550 C.3   106  GLN106      0.1601
     69  C         19.5880  -10.6550   19.9910 C.2   106  GLN106      0.2287
     70  O         20.2410  -11.6830   20.0520 O.2   106  GLN106     -0.2864
     71  CB        18.0030  -11.8140   18.4320 C.3   106  GLN106      0.0394
     72  CG        16.6410  -11.8540   17.7250 C.3   106  GLN106      0.0908
     73  CD        16.4380  -13.1170   16.9160 C.2   106  GLN106      0.2608
     74  OE1       17.3740  -13.6280   16.2610 O.2   106  GLN106     -0.2717
     75  NE2       15.1920  -13.6550   16.9320 N.am  106  GLN106     -0.0878
     76  N         20.6010  -10.7770   23.0110 N.3   108  ASP108     -0.1225
     77  CA        20.7890  -11.7990   24.0620 C.3   108  ASP108      0.1805
     78  C         21.2850  -13.1310   23.5460 C.2   108  ASP108      0.2597
     79  O         21.8690  -13.9410   24.3290 O.2   108  ASP108     -0.2718
     80  CB        19.5020  -11.9620   24.8040 C.3   108  ASP108      0.1424
     81  CG        18.3400  -12.4500   23.8940 C.2   108  ASP108      0.3668
     82  OD1       17.8330  -11.5700   23.1130 O.co2 108  ASP108     -0.2456
     83  OD2       17.9680  -13.6800   23.9500 O.co2 108  ASP108     -0.2456
     84  N         21.0040  -13.4300   22.2670 N.am  109  LEU109     -0.1979
     85  CA        21.3820  -14.7310   21.7400 C.3   109  LEU109      0.1596
     86  C         22.8640  -14.8700   21.4550 C.2   109  LEU109      0.2287
     87  O         23.3090  -15.9540   21.1370 O.2   109  LEU109     -0.2864
     88  CB        20.5670  -15.0690   20.5260 C.3   109  LEU109      0.0297
     89  CG        19.1100  -15.3330   20.8520 C.3   109  LEU109      0.0022
     90  CD1       18.3540  -15.6380   19.5470 C.3   109  LEU109      0.0001
     91  CD2       18.8390  -16.4390   21.8860 C.3   109  LEU109      0.0001
     92  N         17.6220   -6.0690   22.2930 N.3   148  SER148     -0.1202
     93  CA        16.9210   -7.3440   22.5780 C.3   148  SER148      0.2020
     94  C         15.5080   -7.0590   22.9990 C.2   148  SER148      0.2619
     95  O         15.2840   -6.3500   23.9690 O.2   148  SER148     -0.2717
     96  CB        17.5870   -8.1230   23.6840 C.3   148  SER148      0.2103
     97  OG        16.8120   -9.2510   24.0320 O.3   148  SER148     -0.2182
     98  N         14.5360   -7.6040   22.2590 N.am  149  ALA149     -0.1965
     99  CA        13.1440   -7.5200   22.6770 C.3   149  ALA149      0.1728
    100  C         12.9000   -8.3660   23.9390 C.2   149  ALA149      0.2616
    101  O         11.9340   -8.0940   24.6870 O.2   149  ALA149     -0.2715
    102  CB        12.2230   -8.0290   21.5400 C.3   149  ALA149      0.0334
    103  N         13.7110   -9.4120   24.1500 N.am  150  LEU150     -0.1977
    104  CA        13.5610  -10.2770   25.3320 C.3   150  LEU150      0.1596
    105  C         13.9930   -9.5330   26.5960 C.2   150  LEU150      0.2287
    106  O         13.2360   -9.4430   27.5300 O.2   150  LEU150     -0.2864
    107  CB        14.3620  -11.5430   25.1600 C.3   150  LEU150      0.0297
    108  CG        14.3190  -12.4810   26.3510 C.3   150  LEU150      0.0022
    109  CD1       12.8900  -12.9910   26.7060 C.3   150  LEU150      0.0001
    110  CD2       15.2750  -13.6140   26.1100 C.3   150  LEU150      0.0001
@<TRIPOS>BOND
     1    54    53    2
     2    53    52    1
     3    52    55    1
     4    52    51    1
     5    55    56    1
     6    56    57    1
     7    58    57    2
     8    57    59   am
     9     1     2    1
    10     2     3    1
    11    46    45    2
    12     4     3    2
    13     3     5   am
    14    28    29    1
    15    28    27    1
    16    45    44    1
    17    27    26    1
    18     5     6    1
    19    15    14    1
    20    43    44    1
    21    44    47    1
    22    26    25    1
    23     9     6    1
    24    16    14    1
    25    49    48   ar
    26     6     7    1
    27    47    48    1
    28    14    11    1
    29    10     7   am
    30    10    11    1
    31    48    50   ar
    32    25    22    1
    33     7     8    2
    34    11    12    1
    35    35    34    1
    36    22    21    1
    37    22    23    1
    38    12    17   am
    39    12    13    2
    40    21    19   am
    41    17    18    1
    42    30    23   am
    43    30    31    1
    44    23    24    2
    45    34    31    1
    46    34    36    1
    47    65    64    1
    48    31    32    1
    49    19    18    1
    50    19    20    2
    51    66    64    1
    52    60    61    1
    53    74    73    2
    54    64    61    1
    55    32    37   am
    56    32    33    2
    57    73    75   am
    58    73    72    1
    59    61    62    1
    60    63    62    2
    61    37    38    1
    62    62    67   am
    63    72    71    1
    64    71    68    1
    65    67    68    1
    66    42    41    1
    67    38    41    1
    68    38    39    1
    69    39    40    2
    70    68    69    1
    71    90    89    1
    72    69    70    2
    73    88    89    1
    74    88    85    1
    75    89    91    1
    76    87    86    2
    77    86    85    1
    78   102    99    1
    79    85    84    1
    80    98    99    1
    81    98    94   am
    82    84    78   am
    83    92    93    1
    84    93    94    1
    85    93    96    1
    86    99   100    1
    87    94    95    2
    88    76    77    1
    89    82    81   ar
    90    78    77    1
    91    78    79    2
    92    96    97    1
    93    81    83   ar
    94    81    80    1
    95   100   103   am
    96   100   101    2
    97    77    80    1
    98   103   104    1
    99   107   104    1
   100   107   108    1
   101   104   105    1
   102   110   108    1
   103   108   109    1
   104   105   106    2
