@<TRIPOS>MOLECULE
tmp/2q3kB00.pdb
 105 98 0 0 0
SMALL
GASTEIGER

@<TRIPOS>ATOM
      1  N         20.7780   34.2790   27.3620 N.3     8  ARG8       -0.1245
      2  CA        21.5050   33.6170   26.3130 C.3     8  ARG8        0.1563
      3  C         22.5750   32.6960   26.9190 C.2     8  ARG8        0.2260
      4  O         23.2720   33.0790   27.8690 O.2     8  ARG8       -0.2867
      5  CB        22.1530   34.6590   25.4030 C.3     8  ARG8        0.0307
      6  CG        21.1870   35.3450   24.4740 C.3     8  ARG8        0.0489
      7  CD        21.8570   36.4870   23.7190 C.3     8  ARG8        0.2205
      8  NE        20.9230   37.1470   22.8090 N.pl3   8  ARG8       -0.0865
      9  CZ        21.1860   38.2710   22.1480 C.cat   8  ARG8        0.5346
     10  NH1       22.3500   38.8850   22.3020 N.pl3   8  ARG8        0.1354
     11  NH2       20.2920   38.7700   21.3130 N.pl3   8  ARG8        0.1354
     12  N         27.9100   31.2650   21.8320 N.3    23  LEU23      -0.1245
     13  CA        26.5550   30.8660   22.1730 C.3    23  LEU23       0.1561
     14  C         26.3860   29.3590   21.9630 C.2    23  LEU23       0.2260
     15  O         26.6560   28.8420   20.8800 O.2    23  LEU23      -0.2867
     16  CB        25.6170   31.6470   21.2520 C.3    23  LEU23       0.0270
     17  CG        24.1090   31.5430   21.3590 C.3    23  LEU23       0.0019
     18  CD1       23.6160   32.2230   22.6100 C.3    23  LEU23       0.0001
     19  CD2       23.5050   32.1600   20.0870 C.3    23  LEU23       0.0001
     20  N         24.3190   26.5240   20.9750 N.3    25  ASP25      -0.1239
     21  CA        23.1950   26.6260   20.0430 C.3    25  ASP25       0.1674
     22  C         22.8420   25.2620   19.4540 C.2    25  ASP25       0.2266
     23  O         23.4450   24.7980   18.4720 O.2    25  ASP25      -0.2867
     24  CB        23.5280   27.6010   18.9010 C.3    25  ASP25       0.1410
     25  CG        22.3270   27.9270   18.0320 C.2    25  ASP25       0.3668
     26  OD1       21.2520   27.2960   18.1780 O.co2  25  ASP25      -0.2456
     27  OD2       22.4560   28.8210   17.1790 O.co2  25  ASP25      -0.2456
     28  N         20.3330   24.6450   17.7640 N.3    27  GLY27      -0.1210
     29  CA        19.7150   24.8250   16.4610 C.3    27  GLY27       0.1956
     30  C         20.6960   24.8960   15.3020 C.2    27  GLY27       0.2612
     31  O         20.2860   24.9490   14.1420 O.2    27  GLY27      -0.2717
     32  N         21.9850   24.9820   15.6080 N.am   28  ALA28      -0.1965
     33  CA        23.0300   25.0260   14.5890 C.3    28  ALA28       0.1728
     34  C         23.6820   23.6430   14.4850 C.2    28  ALA28       0.2616
     35  O         24.0340   23.0370   15.4980 O.2    28  ALA28      -0.2715
     36  CB        24.0560   26.0740   14.9620 C.3    28  ALA28       0.0334
     37  N         23.7990   23.1440   13.2620 N.am   29  ASP29      -0.1957
     38  CA        24.4980   21.8860   12.9740 C.3    29  ASP29       0.1840
     39  C         26.0030   22.0660   13.1480 C.2    29  ASP29       0.2622
     40  O         26.7120   21.1330   13.5260 O.2    29  ASP29      -0.2715
     41  CB        24.2700   21.4480   11.5250 C.3    29  ASP29       0.1450
     42  CG        22.8010   21.3370   11.1410 C.2    29  ASP29       0.3671
     43  OD1       21.9350   21.1790   12.0290 O.co2  29  ASP29      -0.2456
     44  OD2       22.5270   21.3670    9.9180 O.co2  29  ASP29      -0.2456
     45  N         26.4520   23.2870   12.8610 N.am   30  ASP30      -0.1971
     46  CA        27.8420   23.6390   12.6310 C.3    30  ASP30       0.1709
     47  C         28.2370   24.6870   13.6480 C.2    30  ASP30       0.2293
     48  O         27.3900   25.4270   14.1470 O.2    30  ASP30      -0.2864
     49  CB        27.9770   24.3630   11.2820 C.3    30  ASP30       0.1436
     50  CG        27.6730   23.4960   10.1170 C.2    30  ASP30       0.3671
     51  OD1       28.1530   22.3550   10.0990 O.co2  30  ASP30      -0.2456
     52  OD2       26.9990   23.9890    9.1930 O.co2  30  ASP30      -0.2456
     53  N         30.1940   28.2300   14.0300 N.3    32  VAL32      -0.1245
     54  CA        30.5350   29.3950   13.2050 C.3    32  VAL32       0.1561
     55  C         31.0250   30.5320   14.1050 C.2    32  VAL32       0.2260
     56  O         30.2910   31.0260   14.9570 O.2    32  VAL32      -0.2867
     57  CB        29.3310   29.8930   12.3560 C.3    32  VAL32       0.0252
     58  CG1       29.7880   30.8890   11.3140 C.3    32  VAL32       0.0019
     59  CG2       28.6140   28.7290   11.6890 C.3    32  VAL32       0.0019
     60  N         27.5020   28.5430    3.3430 N.3    47  ILE47      -0.1231
     61  CA        26.4640   28.0220    4.2270 C.3    47  ILE47       0.1692
     62  C         25.2210   28.9130    4.1800 C.2    47  ILE47       0.2593
     63  O         25.3100   30.1260    4.0070 O.2    47  ILE47      -0.2718
     64  CB        26.9720   27.8940    5.6850 C.3    47  ILE47       0.0266
     65  CG1       27.3580   29.2610    6.2740 C.3    47  ILE47       0.0019
     66  CG2       28.1360   26.9260    5.7540 C.3    47  ILE47       0.0020
     67  CD1       27.7590   29.1770    7.7330 C.3    47  ILE47       0.0001
     68  N         24.0570   28.2970    4.3140 N.am   48  GLY48      -0.1942
     69  CA        22.8040   29.0380    4.2610 C.3    48  GLY48       0.2014
     70  C         22.1780   29.1690    5.6270 C.2    48  GLY48       0.2639
     71  O         22.3870   28.3200    6.4960 O.2    48  GLY48      -0.2714
     72  N         21.3770   30.2110    5.8060 N.am   49  GLY49      -0.1939
     73  CA        20.5250   30.3030    6.9820 C.3    49  GLY49       0.2014
     74  C         19.4400   31.3460    6.8210 C.2    49  GLY49       0.2638
     75  O         19.2920   31.9410    5.7480 O.2    49  GLY49      -0.2714
     76  N         18.6920   31.5540    7.9010 N.am   50  ILE50      -0.1977
     77  CA        17.7670   32.6800    8.0200 C.3    50  ILE50       0.1596
     78  C         18.4890   33.9890    7.6740 C.2    50  ILE50       0.2287
     79  O         19.4810   34.3560    8.3070 O.2    50  ILE50      -0.2864
     80  CB        17.1370   32.7370    9.4340 C.3    50  ILE50       0.0276
     81  CG1       15.9000   31.8360    9.4800 C.3    50  ILE50       0.0022
     82  CG2       16.7760   34.1720    9.8270 C.3    50  ILE50       0.0022
     83  CD1       15.0940   31.9400   10.7550 C.3    50  ILE50       0.0001
     84  N         26.2360   36.9340   13.2420 N.3    81  PRO81      -0.2102
     85  CA        25.8460   37.8950   14.2790 C.3    81  PRO81       0.1504
     86  C         26.5260   37.6400   15.6300 C.2    81  PRO81       0.2575
     87  O         26.6840   38.5600   16.4220 O.2    81  PRO81      -0.2718
     88  CB        24.3340   37.6940   14.4110 C.3    81  PRO81       0.0282
     89  CG        23.9210   36.9440   13.2020 C.3    81  PRO81       0.0208
     90  CD        25.0860   36.1630   12.7330 C.3    81  PRO81       0.0893
     91  N         26.8860   36.3850   15.8900 N.am   82  VAL82      -0.1980
     92  CA        27.4290   35.9670   17.1770 C.3    82  VAL82       0.1595
     93  C         28.2180   34.6770   16.9760 C.2    82  VAL82       0.2287
     94  O         27.9090   33.9020   16.0650 O.2    82  VAL82      -0.2864
     95  CB        26.2950   35.7010   18.2060 C.3    82  VAL82       0.0276
     96  CG1       25.3360   34.6370   17.6940 C.3    82  VAL82       0.0022
     97  CG2       26.8720   35.2770   19.5500 C.3    82  VAL82       0.0022
     98  N         29.0100   31.0070   17.4060 N.3    84  ILE84      -0.1245
     99  CA        28.0140   29.9350   17.5380 C.3    84  ILE84       0.1561
    100  C         28.7060   28.5870   17.7180 C.2    84  ILE84       0.2260
    101  O         29.4500   28.1400   16.8440 O.2    84  ILE84      -0.2867
    102  CB        27.1290   29.8630   16.2790 C.3    84  ILE84       0.0252
    103  CG1       26.1610   31.0490   16.2410 C.3    84  ILE84       0.0019
    104  CG2       26.3800   28.5400   16.2020 C.3    84  ILE84       0.0019
    105  CD1       25.6130   31.3280   14.8590 C.3    84  ILE84       0.0001
@<TRIPOS>BOND
     1    60    61    1
     2    63    62    2
     3    62    61    1
     4    62    68   am
     5    61    64    1
     6    69    68    1
     7    69    70    1
     8    70    72   am
     9    70    71    2
    10    64    66    1
    11    64    65    1
    12    75    74    2
    13    72    73    1
    14    65    67    1
    15    74    73    1
    16    74    76   am
    17    78    77    1
    18    78    79    2
    19    76    77    1
    20    77    80    1
    21    52    50   ar
    22    80    81    1
    23    80    82    1
    24    81    83    1
    25    44    42   ar
    26    51    50   ar
    27    50    49    1
    28    42    41    1
    29    42    43   ar
    30    49    46    1
    31    58    57    1
    32    41    38    1
    33    59    57    1
    34    57    54    1
    35    46    45    1
    36    46    47    1
    37    90    89    1
    38    90    84    1
    39    45    39   am
    40    38    39    1
    41    38    37    1
    42    39    40    2
    43    89    88    1
    44    54    53    1
    45    54    55    1
    46    84    85    1
    47    37    34   am
    48    47    48    2
    49    55    56    2
    50    31    30    2
    51    85    88    1
    52    85    86    1
    53    34    33    1
    54    34    35    2
    55    33    36    1
    56    33    32    1
    57   105   103    1
    58    30    32   am
    59    30    29    1
    60    86    91   am
    61    86    87    2
    62    91    92    1
    63    94    93    2
    64   104   102    1
    65   103   102    1
    66   102    99    1
    67    29    28    1
    68   101   100    2
    69    93    92    1
    70    92    95    1
    71    27    25   ar
    72    98    99    1
    73    99   100    1
    74    96    95    1
    75    25    26   ar
    76    25    24    1
    77    95    97    1
    78    23    22    2
    79    24    21    1
    80    22    21    1
    81    21    20    1
    82    19    17    1
    83    15    14    2
    84    16    17    1
    85    16    13    1
    86    11     9    1
    87    17    18    1
    88    12    13    1
    89    14    13    1
    90     9    10    1
    91     9     8    2
    92     8     7    1
    93     7     6    1
    94     6     5    1
    95     5     2    1
    96     2     3    1
    97     2     1    1
    98     3     4    2
