@<TRIPOS>MOLECULE
tmp/2q3lA01.pdb
 92 83 0 0 0
SMALL
GASTEIGER

@<TRIPOS>ATOM
      1  N         23.1180   43.7420   16.2540 N.3     8  ILE8       -0.1245
      2  CA        22.2240   43.0320   17.1580 C.3     8  ILE8        0.1561
      3  C         22.6190   43.4300   18.5500 C.2     8  ILE8        0.2260
      4  O         23.7860   43.3460   18.8990 O.2     8  ILE8       -0.2867
      5  CB        22.3300   41.5110   17.0400 C.3     8  ILE8        0.0252
      6  CG1       22.2680   41.0890   15.5730 C.3     8  ILE8        0.0019
      7  CG2       21.2540   40.8450   17.8350 C.3     8  ILE8        0.0019
      8  CD1       22.5120   39.6050   15.3270 C.3     8  ILE8        0.0001
      9  N         16.5770   40.6990   22.3930 N.3    23  PHE23      -0.1241
     10  CA        17.3610   40.9970   21.2100 C.3    23  PHE23       0.1605
     11  C         16.7090   42.1540   20.5030 C.2    23  PHE23       0.2264
     12  O         15.4820   42.3200   20.5240 O.2    23  PHE23      -0.2867
     13  CB        17.3400   39.8460   20.2070 C.3    23  PHE23       0.0534
     14  CG        17.8310   38.5450   20.7480 C.ar   23  PHE23      -0.0203
     15  CD1       16.9900   37.7360   21.4620 C.ar   23  PHE23      -0.0042
     16  CD2       19.1290   38.1110   20.4760 C.ar   23  PHE23      -0.0042
     17  CE1       17.4350   36.5330   21.9480 C.ar   23  PHE23      -0.0003
     18  CE2       19.5900   36.8970   20.9480 C.ar   23  PHE23      -0.0003
     19  CZ        18.7400   36.1090   21.6880 C.ar   23  PHE23      -0.0000
     20  N         17.3900   43.6520   16.6440 N.3    25  ALA25      -0.1245
     21  CA        18.0900   43.5190   15.3850 C.3    25  ALA25       0.1562
     22  C         17.8330   44.7720   14.5350 C.2    25  ALA25       0.2260
     23  O         16.6810   45.1350   14.2610 O.2    25  ALA25      -0.2867
     24  CB        17.6040   42.3010   14.6880 C.3    25  ALA25       0.0290
     25  N         21.9690   42.8960    8.7830 N.3    29  LEU29      -0.1245
     26  CA        22.8440   42.1110    9.6460 C.3    29  LEU29       0.1561
     27  C         23.9060   41.3970    8.8330 C.2    29  LEU29       0.2260
     28  O         23.6270   40.9220    7.7190 O.2    29  LEU29      -0.2867
     29  CB        22.0290   41.0810   10.4460 C.3    29  LEU29       0.0270
     30  CG        20.8440   41.6550   11.2330 C.3    29  LEU29       0.0019
     31  CD1       20.2410   40.5240   12.1150 C.3    29  LEU29       0.0001
     32  CD2       21.2300   42.7910   12.1190 C.3    29  LEU29       0.0001
     33  N         26.6400   38.5380   13.9480 N.3    34  TYR34      -0.1241
     34  CA        26.3680   37.2530   14.6010 C.3    34  TYR34       0.1605
     35  C         27.5690   36.7870   15.4080 C.2    34  TYR34       0.2264
     36  O         27.4130   36.2060   16.4720 O.2    34  TYR34      -0.2867
     37  CB        25.8790   36.1840   13.6040 C.3    34  TYR34       0.0534
     38  CG        24.4130   36.3500   13.3210 C.ar   34  TYR34      -0.0201
     39  CD1       23.9610   37.2620   12.3550 C.ar   34  TYR34      -0.0009
     40  CD2       23.4700   35.6940   14.0940 C.ar   34  TYR34      -0.0009
     41  CE1       22.5560   37.4900   12.1390 C.ar   34  TYR34       0.0417
     42  CE2       22.0780   35.8860   13.8740 C.ar   34  TYR34       0.0417
     43  CZ        21.6440   36.7930   12.8950 C.ar   34  TYR34       0.1957
     44  OH        20.3060   36.9780   12.6870 O.3    34  TYR34      -0.2866
     45  N         12.3770   39.4170   20.5610 N.3    56  ILE56      -0.1245
     46  CA        13.2370   39.8510   19.4380 C.3    56  ILE56       0.1561
     47  C         12.5050   40.9970   18.7660 C.2    56  ILE56       0.2260
     48  O         11.4100   40.7980   18.2320 O.2    56  ILE56      -0.2867
     49  CB        13.5070   38.7330   18.4040 C.3    56  ILE56       0.0252
     50  CG1       13.9560   37.4450   19.1040 C.3    56  ILE56       0.0019
     51  CG2       14.5390   39.1830   17.3490 C.3    56  ILE56       0.0019
     52  CD1       14.1620   36.3100   18.1850 C.3    56  ILE56       0.0001
     53  N         12.3520   43.3640   15.8900 N.3    58  ILE58      -0.1245
     54  CA        12.7540   43.5040   14.5090 C.3    58  ILE58       0.1561
     55  C         12.1380   44.7540   13.8700 C.2    58  ILE58       0.2260
     56  O         12.1160   44.8550   12.6440 O.2    58  ILE58      -0.2867
     57  CB        12.3980   42.2300   13.6670 C.3    58  ILE58       0.0252
     58  CG1       10.8780   41.9970   13.5720 C.3    58  ILE58       0.0019
     59  CG2       13.0870   41.0010   14.2710 C.3    58  ILE58       0.0019
     60  CD1       10.5160   40.7950   12.6710 C.3    58  ILE58       0.0001
     61  N         14.7820   46.3030   11.6890 N.3    61  LEU61      -0.1245
     62  CA        15.5030   45.3290   10.8980 C.3    61  LEU61       0.1561
     63  C         15.2180   45.4820    9.4250 C.2    61  LEU61       0.2260
     64  O         14.0740   45.4440    9.0310 O.2    61  LEU61      -0.2867
     65  CB        15.0810   43.9200   11.3070 C.3    61  LEU61       0.0270
     66  CG        15.7980   42.7570   10.6000 C.3    61  LEU61       0.0019
     67  CD1       17.3110   42.8340   10.7740 C.3    61  LEU61       0.0001
     68  CD2       15.2790   41.4490   11.0640 C.3    61  LEU61       0.0001
     69  N         19.0020   40.2990    6.4660 N.3    64  LEU64      -0.1245
     70  CA        20.2160   39.5650    6.7910 C.3    64  LEU64       0.1561
     71  C         21.0670   39.3380    5.5480 C.2    64  LEU64       0.2260
     72  O         20.5300   39.0090    4.5160 O.2    64  LEU64      -0.2867
     73  CB        19.8820   38.1990    7.3950 C.3    64  LEU64       0.0270
     74  CG        19.4750   38.1020    8.8760 C.3    64  LEU64       0.0019
     75  CD1       18.1380   38.7420    9.1440 C.3    64  LEU64       0.0001
     76  CD2       19.4410   36.6770    9.2810 C.3    64  LEU64       0.0001
     77  N         22.3230   32.5840   11.5320 N.3    72  ASP72      -0.1239
     78  CA        21.0480   32.5280   12.2210 C.3    72  ASP72       0.1674
     79  C         20.4670   31.1120   12.2840 C.2    72  ASP72       0.2266
     80  O         20.0170   30.6560   13.3180 O.2    72  ASP72      -0.2867
     81  CB        20.0850   33.4310   11.5130 C.3    72  ASP72       0.1410
     82  CG        18.8110   33.6470   12.3050 C.2    72  ASP72       0.3668
     83  OD1       18.9370   34.0290   13.4740 O.co2  72  ASP72      -0.2456
     84  OD2       17.6990   33.4690   11.7560 O.co2  72  ASP72      -0.2456
     85  N         22.5080   28.9970   14.7040 N.3    75  LEU75      -0.1245
     86  CA        22.1360   29.2800   16.0740 C.3    75  LEU75       0.1561
     87  C         20.7890   28.6310   16.3970 C.2    75  LEU75       0.2260
     88  O         20.6530   28.0560   17.4580 O.2    75  LEU75      -0.2867
     89  CB        22.1370   30.7930   16.3870 C.3    75  LEU75       0.0270
     90  CG        23.5350   31.4160   16.3590 C.3    75  LEU75       0.0019
     91  CD1       23.4860   32.8820   16.6520 C.3    75  LEU75       0.0001
     92  CD2       24.4850   30.7240   17.3050 C.3    75  LEU75       0.0001
@<TRIPOS>BOND
     1    72    71    2
     2    71    70    1
     3    69    70    1
     4    70    73    1
     5    73    74    1
     6    28    27    2
     7    25    26    1
     8    27    26    1
     9    74    75    1
    10    74    76    1
    11    64    63    2
    12    63    62    1
    13    26    29    1
    14    29    30    1
    15    66    67    1
    16    66    68    1
    17    66    65    1
    18    62    65    1
    19    62    61    1
    20    30    31    1
    21    30    32    1
    22    81    78    1
    23    81    82    1
    24    77    78    1
    25    84    82   ar
    26    41    39   ar
    27    41    43   ar
    28    78    79    1
    29    79    80    2
    30    82    83   ar
    31    39    38   ar
    32    56    55    2
    33    60    58    1
    34    44    43    1
    35    43    42   ar
    36    38    37    1
    37    38    40   ar
    38    58    57    1
    39    37    34    1
    40    57    59    1
    41    57    54    1
    42    55    54    1
    43    42    40   ar
    44    33    34    1
    45    23    22    2
    46    54    53    1
    47    22    21    1
    48    34    35    1
    49    24    21    1
    50    85    86    1
    51     8     6    1
    52    21    20    1
    53    35    36    2
    54     6     5    1
    55    86    89    1
    56    86    87    1
    57     1     2    1
    58    90    89    1
    59    90    91    1
    60    90    92    1
    61    87    88    2
    62     5     2    1
    63     5     7    1
    64     2     3    1
    65    51    49    1
    66    52    50    1
    67    48    47    2
    68    49    50    1
    69    49    46    1
    70     3     4    2
    71    47    46    1
    72    46    45    1
    73    13    14    1
    74    13    10    1
    75    16    14   ar
    76    16    18   ar
    77    11    12    2
    78    11    10    1
    79    14    15   ar
    80    18    19   ar
    81    10     9    1
    82    15    17   ar
    83    19    17   ar
