@<TRIPOS>MOLECULE
tmp/2q3lB02.pdb
 85 76 0 0 0
SMALL
GASTEIGER

@<TRIPOS>ATOM
      1  N         43.5020   49.3200   -9.2010 N.3    52  ILE52      -0.1245
      2  CA        42.6580   48.9950   -8.0590 C.3    52  ILE52       0.1561
      3  C         43.3500   49.4370   -6.7890 C.2    52  ILE52       0.2260
      4  O         44.3930   48.8820   -6.4360 O.2    52  ILE52      -0.2867
      5  CB        42.3260   47.5120   -7.9580 C.3    52  ILE52       0.0252
      6  CG1       41.7240   47.0210   -9.2690 C.3    52  ILE52       0.0019
      7  CG2       41.2960   47.2520   -6.8000 C.3    52  ILE52       0.0019
      8  CD1       41.4690   45.5370   -9.2990 C.3    52  ILE52       0.0001
      9  N         43.4850   49.3910   -2.9630 N.3    54  ILE54      -0.1245
     10  CA        43.0840   48.5700   -1.8370 C.3    54  ILE54       0.1561
     11  C         43.6610   49.1000   -0.5310 C.2    54  ILE54       0.2260
     12  O         43.5810   48.4360    0.4930 O.2    54  ILE54      -0.2867
     13  CB        43.4550   47.0920   -2.0080 C.3    54  ILE54       0.0252
     14  CG1       44.9630   46.8880   -2.0550 C.3    54  ILE54       0.0019
     15  CG2       42.7670   46.5160   -3.2260 C.3    54  ILE54       0.0019
     16  CD1       45.3680   45.4210   -2.1380 C.3    54  ILE54       0.0001
     17  N         40.8400   48.9640    1.9210 N.3    57  LEU57      -0.1245
     18  CA        40.0800   47.7330    1.8980 C.3    57  LEU57       0.1561
     19  C         40.2730   46.8810    3.1610 C.2    57  LEU57       0.2260
     20  O         41.4030   46.5480    3.5000 O.2    57  LEU57      -0.2867
     21  CB        40.5270   46.8880    0.7020 C.3    57  LEU57       0.0270
     22  CG        39.9090   45.4940    0.5210 C.3    57  LEU57       0.0019
     23  CD1       38.4000   45.5730    0.3090 C.3    57  LEU57       0.0001
     24  CD2       40.6190   44.7670   -0.6220 C.3    57  LEU57       0.0001
     25  N         36.0930   41.3760    1.9880 N.3    60  LEU60      -0.1245
     26  CA        34.7900   41.1570    1.3110 C.3    60  LEU60       0.1561
     27  C         33.9320   40.1740    2.0840 C.2    60  LEU60       0.2260
     28  O         34.4770   39.3000    2.6900 O.2    60  LEU60      -0.2867
     29  CB        34.9850   40.5340   -0.0470 C.3    60  LEU60       0.0270
     30  CG        35.5860   41.3740   -1.1890 C.3    60  LEU60       0.0019
     31  CD1       36.9630   41.8960   -0.9000 C.3    60  LEU60       0.0001
     32  CD2       35.6280   40.5260   -2.3740 C.3    60  LEU60       0.0001
     33  N         32.4520   38.7960   -6.7490 N.3    68  ASP68      -0.1239
     34  CA        33.7310   39.2350   -7.2550 C.3    68  ASP68       0.1674
     35  C         34.2880   38.1780   -8.1870 C.2    68  ASP68       0.2266
     36  O         34.6180   38.4740   -9.2920 O.2    68  ASP68      -0.2867
     37  CB        34.7190   39.5070   -6.1060 C.3    68  ASP68       0.1410
     38  CG        35.9380   40.3520   -6.5530 C.2    68  ASP68       0.3668
     39  OD1       35.7830   41.2120   -7.4380 O.co2  68  ASP68      -0.2456
     40  OD2       37.0230   40.2200   -5.9720 O.co2  68  ASP68      -0.2456
     41  N         47.7890   47.2020   -8.5760 N.3    84  ILE84      -0.1245
     42  CA        47.1260   47.1570   -7.2950 C.3    84  ILE84       0.1561
     43  C         47.8820   48.1680   -6.4700 C.2    84  ILE84       0.2260
     44  O         49.1060   48.0930   -6.3660 O.2    84  ILE84      -0.2867
     45  CB        47.2210   45.7560   -6.6560 C.3    84  ILE84       0.0252
     46  CG1       46.5440   44.7160   -7.5560 C.3    84  ILE84       0.0019
     47  CG2       46.6140   45.7390   -5.2710 C.3    84  ILE84       0.0019
     48  CD1       45.0320   44.8700   -7.6810 C.3    84  ILE84       0.0001
     49  N         49.5750   42.5920    1.5370 N.3    91  GLN91      -0.1245
     50  CA        48.8610   42.9970    0.3130 C.3    91  GLN91       0.1566
     51  C         49.7130   42.7150   -0.9590 C.2    91  GLN91       0.2260
     52  O         49.2050   42.3390   -2.0030 O.2    91  GLN91      -0.2867
     53  CB        48.3910   44.4650    0.3620 C.3    91  GLN91       0.0367
     54  CG        47.1620   44.6740    1.2650 C.3    91  GLN91       0.0905
     55  CD        46.5530   46.0790    1.1520 C.2    91  GLN91       0.2608
     56  OE1       47.1980   47.0030    0.6680 O.2    91  GLN91      -0.2717
     57  NE2       45.2940   46.2330    1.5920 N.am   91  GLN91      -0.0878
     58  N         49.3400   38.9150   -1.5540 N.3    94  ALA94      -0.1231
     59  CA        48.0070   38.6500   -2.0610 C.3    94  ALA94       0.1694
     60  C         47.9090   39.0120   -3.5370 C.2    94  ALA94       0.2592
     61  O         47.2210   38.3380   -4.2950 O.2    94  ALA94      -0.2718
     62  CB        46.9570   39.3870   -1.2420 C.3    94  ALA94       0.0304
     63  N         48.6200   40.0520   -3.9450 N.am   95  THR95      -0.1953
     64  CA        48.6610   40.4810   -5.3380 C.3    95  THR95       0.1897
     65  C         49.3800   39.4700   -6.2010 C.2    95  THR95       0.2313
     66  O         48.9050   39.1400   -7.2940 O.2    95  THR95      -0.2863
     67  CB        49.3300   41.8740   -5.4860 C.3    95  THR95       0.1794
     68  OG1       48.5860   42.8550   -4.7300 O.3    95  THR95      -0.2208
     69  CG2       49.3790   42.2830   -6.9240 C.3    95  THR95       0.0378
     70  N         47.1540   36.4890   -6.6470 N.3    98  ALA98      -0.1245
     71  CA        46.1490   36.8290   -7.6620 C.3    98  ALA98       0.1562
     72  C         46.7770   36.8020   -9.0370 C.2    98  ALA98       0.2260
     73  O         46.1450   36.3620  -10.0120 O.2    98  ALA98      -0.2867
     74  CB        45.5810   38.2090   -7.3920 C.3    98  ALA98       0.0290
     75  N         49.0740   41.3170  -13.0090 N.3   106  PHE106     -0.1241
     76  CA        48.7420   42.0870  -11.8250 C.3   106  PHE106      0.1605
     77  C         50.0820   42.3820  -11.1550 C.2   106  PHE106      0.2264
     78  O         50.8750   41.4610  -10.9730 O.2   106  PHE106     -0.2867
     79  CB        47.8660   41.3000  -10.8220 C.3   106  PHE106      0.0534
     80  CG        46.3930   41.2320  -11.1520 C.ar  106  PHE106     -0.0203
     81  CD1       45.9420   40.6460  -12.3210 C.ar  106  PHE106     -0.0042
     82  CD2       45.4480   41.6310  -10.2150 C.ar  106  PHE106     -0.0042
     83  CE1       44.5910   40.5590  -12.5950 C.ar  106  PHE106     -0.0003
     84  CE2       44.0810   41.5300  -10.4740 C.ar  106  PHE106     -0.0003
     85  CZ        43.6500   40.9980  -11.6550 C.ar  106  PHE106     -0.0000
@<TRIPOS>BOND
     1    75    76    1
     2    83    81   ar
     3    83    85   ar
     4    81    80   ar
     5    76    77    1
     6    76    79    1
     7    85    84   ar
     8    77    78    2
     9    80    79    1
    10    80    82   ar
    11    84    82   ar
    12    73    72    2
    13     8     6    1
    14    36    35    2
    15     6     5    1
    16     1     2    1
    17    72    71    1
    18    41    42    1
    19    35    34    1
    20     2     5    1
    21     2     3    1
    22     5     7    1
    23    48    46    1
    24    71    74    1
    25    71    70    1
    26    46    45    1
    27    39    38   ar
    28    42    45    1
    29    42    43    1
    30    66    65    2
    31    34    33    1
    32    34    37    1
    33    69    67    1
    34     3     4    2
    35    45    47    1
    36    38    37    1
    37    38    40   ar
    38    43    44    2
    39    65    64    1
    40    67    64    1
    41    67    68    1
    42    64    63    1
    43    61    60    2
    44    63    60   am
    45    60    59    1
    46    15    13    1
    47     9    10    1
    48    32    30    1
    49    16    14    1
    50    59    58    1
    51    59    62    1
    52    14    13    1
    53    13    10    1
    54    52    51    2
    55    10    11    1
    56    30    31    1
    57    30    29    1
    58    51    50    1
    59    24    22    1
    60    11    12    2
    61    29    26    1
    62    23    22    1
    63    50    53    1
    64    50    49    1
    65    53    54    1
    66    22    21    1
    67    56    55    2
    68    21    18    1
    69    55    54    1
    70    55    57   am
    71    26    25    1
    72    26    27    1
    73    18    17    1
    74    18    19    1
    75    27    28    2
    76    19    20    2
