@<TRIPOS>MOLECULE
tmp/2q3lA02.pdb
 102 95 0 0 0
SMALL
GASTEIGER

@<TRIPOS>ATOM
      1  N         16.5770   40.6990   22.3930 N.3    23  PHE23      -0.1241
      2  CA        17.3610   40.9970   21.2100 C.3    23  PHE23       0.1605
      3  C         16.7090   42.1540   20.5030 C.2    23  PHE23       0.2264
      4  O         15.4820   42.3200   20.5240 O.2    23  PHE23      -0.2867
      5  CB        17.3400   39.8460   20.2070 C.3    23  PHE23       0.0534
      6  CG        17.8310   38.5450   20.7480 C.ar   23  PHE23      -0.0203
      7  CD1       16.9900   37.7360   21.4620 C.ar   23  PHE23      -0.0042
      8  CD2       19.1290   38.1110   20.4760 C.ar   23  PHE23      -0.0042
      9  CE1       17.4350   36.5330   21.9480 C.ar   23  PHE23      -0.0003
     10  CE2       19.5900   36.8970   20.9480 C.ar   23  PHE23      -0.0003
     11  CZ        18.7400   36.1090   21.6880 C.ar   23  PHE23      -0.0000
     12  N         25.2860   35.0740   23.7850 N.3    40  LEU40      -0.1245
     13  CA        24.2160   34.0980   23.7210 C.3    40  LEU40       0.1561
     14  C         24.6730   32.8190   24.3920 C.2    40  LEU40       0.2260
     15  O         23.9430   32.2740   25.2130 O.2    40  LEU40      -0.2867
     16  CB        23.8110   33.8230   22.3000 C.3    40  LEU40       0.0270
     17  CG        22.7520   32.7780   22.0330 C.3    40  LEU40       0.0019
     18  CD1       21.4300   33.1970   22.6900 C.3    40  LEU40       0.0001
     19  CD2       22.6070   32.6510   20.5500 C.3    40  LEU40       0.0001
     20  N         12.2810   34.4390   25.1040 N.3    54  ALA54      -0.1245
     21  CA        12.9450   35.6060   24.4890 C.3    54  ALA54       0.1562
     22  C         12.0150   36.5820   23.7610 C.2    54  ALA54       0.2260
     23  O         10.9010   36.2230   23.3390 O.2    54  ALA54      -0.2867
     24  CB        14.0090   35.1200   23.4940 C.3    54  ALA54       0.0290
     25  N         12.3770   39.4170   20.5610 N.3    56  ILE56      -0.1245
     26  CA        13.2370   39.8510   19.4380 C.3    56  ILE56       0.1561
     27  C         12.5050   40.9970   18.7660 C.2    56  ILE56       0.2260
     28  O         11.4100   40.7980   18.2320 O.2    56  ILE56      -0.2867
     29  CB        13.5070   38.7330   18.4040 C.3    56  ILE56       0.0252
     30  CG1       13.9560   37.4450   19.1040 C.3    56  ILE56       0.0019
     31  CG2       14.5390   39.1830   17.3490 C.3    56  ILE56       0.0019
     32  CD1       14.1620   36.3100   18.1850 C.3    56  ILE56       0.0001
     33  N         22.3230   32.5840   11.5320 N.3    72  ASP72      -0.1239
     34  CA        21.0480   32.5280   12.2210 C.3    72  ASP72       0.1674
     35  C         20.4670   31.1120   12.2840 C.2    72  ASP72       0.2266
     36  O         20.0170   30.6560   13.3180 O.2    72  ASP72      -0.2867
     37  CB        20.0850   33.4310   11.5130 C.3    72  ASP72       0.1410
     38  CG        18.8110   33.6470   12.3050 C.2    72  ASP72       0.3668
     39  OD1       18.9370   34.0290   13.4740 O.co2  72  ASP72      -0.2456
     40  OD2       17.6990   33.4690   11.7560 O.co2  72  ASP72      -0.2456
     41  N         22.5080   28.9970   14.7040 N.3    75  LEU75      -0.1231
     42  CA        22.1360   29.2800   16.0740 C.3    75  LEU75       0.1693
     43  C         20.7890   28.6310   16.3970 C.2    75  LEU75       0.2592
     44  O         20.6530   28.0560   17.4580 O.2    75  LEU75      -0.2718
     45  CB        22.1370   30.7930   16.3870 C.3    75  LEU75       0.0284
     46  CG        23.5350   31.4160   16.3590 C.3    75  LEU75       0.0019
     47  CD1       23.4860   32.8820   16.6520 C.3    75  LEU75       0.0001
     48  CD2       24.4850   30.7240   17.3050 C.3    75  LEU75       0.0001
     49  N         19.8160   28.6490   15.4920 N.am   76  GLY76      -0.1957
     50  CA        18.5320   27.9720   15.7660 C.3    76  GLY76       0.1869
     51  C         18.6380   26.4560   15.9540 C.2    76  GLY76       0.2309
     52  O         18.0080   25.8590   16.8560 O.2    76  GLY76      -0.2863
     53  N         20.5680   26.0640   19.4560 N.3    79  HIS79      -0.1226
     54  CA        19.9630   26.5230   20.7380 C.3    79  HIS79       0.1752
     55  C         18.4860   26.6130   20.7980 C.2    79  HIS79       0.2596
     56  O         17.9460   26.7940   21.9020 O.2    79  HIS79      -0.2718
     57  CB        20.5310   27.9240   21.1030 C.3    79  HIS79       0.0759
     58  CG        22.0260   27.9780   21.0930 C.ar   79  HIS79       0.0818
     59  ND1       22.7960   27.3350   22.0420 N.ar   79  HIS79      -0.2268
     60  CD2       22.8940   28.5390   20.2150 C.ar   79  HIS79       0.1154
     61  CE1       24.0760   27.5020   21.7460 C.ar   79  HIS79       0.1986
     62  NE2       24.1650   28.2390   20.6540 N.ar   79  HIS79      -0.2212
     63  N         17.8130   26.4560   19.6580 N.am   80  GLY80      -0.1957
     64  CA        16.4000   26.7260   19.5870 C.3    80  GLY80       0.1869
     65  C         15.5200   25.8950   20.4660 C.2    80  GLY80       0.2309
     66  O         14.4860   26.3690   20.9570 O.2    80  GLY80      -0.2863
     67  N         14.4730   27.2080   23.8950 N.3    83  PHE83      -0.1241
     68  CA        13.4670   28.2930   23.9870 C.3    83  PHE83       0.1605
     69  C         12.0570   27.7290   23.9290 C.2    83  PHE83       0.2264
     70  O         11.7220   27.0370   22.9420 O.2    83  PHE83      -0.2867
     71  CB        13.6280   29.2500   22.8090 C.3    83  PHE83       0.0534
     72  CG        14.8970   30.0110   22.8510 C.ar   83  PHE83      -0.0203
     73  CD1       16.0700   29.4130   22.5330 C.ar   83  PHE83      -0.0042
     74  CD2       14.9180   31.3340   23.2450 C.ar   83  PHE83      -0.0042
     75  CE1       17.2640   30.1060   22.6140 C.ar   83  PHE83      -0.0003
     76  CE2       16.1080   32.0240   23.3020 C.ar   83  PHE83      -0.0003
     77  CZ        17.2680   31.3930   23.0060 C.ar   83  PHE83      -0.0000
     78  N          9.0010   32.5510   22.1470 N.3    86  VAL86      -0.1245
     79  CA         9.6590   33.6860   21.5360 C.3    86  VAL86       0.1561
     80  C          8.6170   34.7040   21.0120 C.2    86  VAL86       0.2260
     81  O          7.7810   34.4110   20.1490 O.2    86  VAL86      -0.2867
     82  CB        10.6170   33.2530   20.4100 C.3    86  VAL86       0.0252
     83  CG1       11.4530   34.4410   19.9450 C.3    86  VAL86       0.0019
     84  CG2       11.5290   32.1490   20.9200 C.3    86  VAL86       0.0019
     85  N          9.7380   25.6240   14.1160 N.3   106  THR106     -0.1218
     86  CA        10.4580   25.6010   15.3990 C.3   106  THR106      0.1862
     87  C          9.7400   24.9060   16.5420 C.2   106  THR106      0.2287
     88  O          8.4750   24.8730   16.5730 O.2   106  THR106     -0.2866
     89  CB        10.7500   27.0690   15.8080 C.3   106  THR106      0.1770
     90  OG1        9.5270   27.7880   15.8220 O.3   106  THR106     -0.2211
     91  CG2       11.6420   27.7440   14.7840 C.3   106  THR106      0.0375
     92  N          6.6180   30.6570   18.7670 N.3   110  PHE110     -0.1241
     93  CA         6.8800   32.0020   18.2650 C.3   110  PHE110      0.1605
     94  C          5.5260   32.6920   18.0640 C.2   110  PHE110      0.2264
     95  O          4.6510   32.1230   17.4310 O.2   110  PHE110     -0.2867
     96  CB         7.5670   31.9450   16.9000 C.3   110  PHE110      0.0534
     97  CG         9.0560   31.7190   16.9620 C.ar  110  PHE110     -0.0203
     98  CD1        9.5740   30.5460   17.5040 C.ar  110  PHE110     -0.0042
     99  CD2        9.9140   32.6620   16.4630 C.ar  110  PHE110     -0.0042
    100  CE1       10.9140   30.3290   17.5770 C.ar  110  PHE110     -0.0003
    101  CE2       11.2770   32.4480   16.5030 C.ar  110  PHE110     -0.0003
    102  CZ        11.7790   31.2860   17.0860 C.ar  110  PHE110     -0.0000
@<TRIPOS>BOND
     1    37    34    1
     2    37    38    1
     3    33    34    1
     4    40    38   ar
     5    34    35    1
     6    35    36    2
     7    38    39   ar
     8    85    86    1
     9    41    42    1
    10    91    89    1
    11    86    89    1
    12    86    87    1
    13    49    50    1
    14    49    43   am
    15    50    51    1
    16    89    90    1
    17    51    52    2
    18    42    45    1
    19    42    43    1
    20    46    45    1
    21    46    47    1
    22    46    48    1
    23    43    44    2
    24    99   101   ar
    25    99    97   ar
    26   101   102   ar
    27    87    88    2
    28    96    97    1
    29    96    93    1
    30    97    98   ar
    31   102   100   ar
    32    31    29    1
    33    95    94    2
    34    98   100   ar
    35    94    93    1
    36    32    30    1
    37    28    27    2
    38    93    92    1
    39    29    30    1
    40    29    26    1
    41    27    26    1
    42    26    25    1
    43    53    54    1
    44    64    63    1
    45    64    65    1
    46    63    55   am
    47    83    82    1
    48    81    80    2
    49     5     6    1
    50     5     2    1
    51    60    62   ar
    52    60    58   ar
    53    82    84    1
    54    82    79    1
    55    65    66    2
    56     8     6   ar
    57     8    10   ar
    58     3     4    2
    59     3     2    1
    60    19    17    1
    61    62    61   ar
    62    54    55    1
    63    54    57    1
    64     6     7   ar
    65    55    56    2
    66    10    11   ar
    67    80    79    1
    68    58    57    1
    69    58    59   ar
    70     2     1    1
    71     7     9   ar
    72    79    78    1
    73    11     9   ar
    74    61    59   ar
    75    17    16    1
    76    17    18    1
    77    16    13    1
    78    73    75   ar
    79    73    72   ar
    80    75    77   ar
    81    71    72    1
    82    71    68    1
    83    72    74   ar
    84    70    69    2
    85    77    76   ar
    86    74    76   ar
    87    23    22    2
    88    24    21    1
    89    13    12    1
    90    13    14    1
    91    22    21    1
    92    67    68    1
    93    69    68    1
    94    14    15    2
    95    21    20    1
