@<TRIPOS>MOLECULE
tmp/2q3mA00.pdb
 112 111 0 0 0
SMALL
GASTEIGER

@<TRIPOS>ATOM
      1  N         56.3350   28.8310   -6.2580 N.3    39  LEU39      -0.1231
      2  CA        55.6680   27.6440   -5.7030 C.3    39  LEU39       0.1693
      3  C         54.1530   27.6440   -5.9410 C.2    39  LEU39       0.2592
      4  O         53.5200   28.6900   -6.2000 O.2    39  LEU39      -0.2718
      5  CB        55.9390   27.5140   -4.1990 C.3    39  LEU39       0.0284
      6  CG        57.3770   27.1380   -3.8080 C.3    39  LEU39       0.0019
      7  CD1       57.3270   26.5590   -2.4200 C.3    39  LEU39       0.0001
      8  CD2       57.9870   26.1000   -4.7700 C.3    39  LEU39       0.0001
      9  N         53.6010   26.4380   -5.8710 N.am   40  TRP40      -0.1962
     10  CA        52.1770   26.1840   -6.0480 C.3    40  TRP40       0.1771
     11  C         51.5480   26.1300   -4.6530 C.2    40  TRP40       0.2620
     12  O         51.9900   25.3520   -3.8010 O.2    40  TRP40      -0.2715
     13  CB        51.9870   24.8300   -6.7230 C.3    40  TRP40       0.0590
     14  CG        52.8190   24.7220   -7.9810 C.ar   40  TRP40       0.0006
     15  CD1       54.1700   24.6010   -8.0600 C.ar   40  TRP40       0.0946
     16  CD2       52.3360   24.7710   -9.3290 C.ar   40  TRP40       0.0152
     17  NE1       54.5590   24.5710   -9.3810 N.ar   40  TRP40      -0.2442
     18  CE2       53.4520   24.6760  -10.1770 C.ar   40  TRP40       0.0810
     19  CE3       51.0710   24.8860   -9.8990 C.ar   40  TRP40       0.0012
     20  CZ2       53.3430   24.6880  -11.5670 C.ar   40  TRP40       0.0191
     21  CZ3       50.9660   24.8970  -11.2990 C.ar   40  TRP40       0.0001
     22  CH2       52.0950   24.7960  -12.1040 C.ar   40  TRP40       0.0015
     23  N         50.5060   26.9370   -4.4490 N.am   41  HIS41      -0.1959
     24  CA        49.8030   27.0470   -3.1960 C.3    41  HIS41       0.1787
     25  C         48.3670   26.6930   -3.4140 C.2    41  HIS41       0.2620
     26  O         47.8060   26.9240   -4.5040 O.2    41  HIS41      -0.2715
     27  CB        49.8390   28.4810   -2.6660 C.3    41  HIS41       0.0785
     28  CG        51.1980   28.9200   -2.2150 C.ar   41  HIS41       0.0821
     29  ND1       51.6420   28.7530   -0.9190 N.ar   41  HIS41      -0.2267
     30  CD2       52.2230   29.4830   -2.8970 C.ar   41  HIS41       0.1154
     31  CE1       52.8800   29.2050   -0.8220 C.ar   41  HIS41       0.1986
     32  NE2       53.2560   29.6540   -2.0070 N.ar   41  HIS41      -0.2212
     33  N         47.7710   26.1250   -2.3700 N.am   42  THR42      -0.1951
     34  CA        46.3500   25.8310   -2.4300 C.3    42  THR42       0.1897
     35  C         45.7760   27.2250   -2.3780 C.2    42  THR42       0.2313
     36  O         46.4450   28.1540   -1.9010 O.2    42  THR42      -0.2863
     37  CB        45.9310   24.9910   -1.2250 C.3    42  THR42       0.1794
     38  OG1       46.1380   25.7310   -0.0140 O.3    42  THR42      -0.2208
     39  CG2       46.7660   23.7260   -1.2120 C.3    42  THR42       0.0378
     40  N         46.1910   28.8460    1.3060 N.3    45  ILE45      -0.1245
     41  CA        47.5200   29.2430    1.7600 C.3    45  ILE45       0.1561
     42  C         47.9740   30.5160    1.0570 C.2    45  ILE45       0.2260
     43  O         48.6230   31.3860    1.6690 O.2    45  ILE45      -0.2867
     44  CB        48.5220   28.0550    1.5280 C.3    45  ILE45       0.0252
     45  CG1       48.1660   26.8780    2.4700 C.3    45  ILE45       0.0019
     46  CG2       49.9470   28.5050    1.7680 C.3    45  ILE45       0.0019
     47  CD1       48.3490   27.1730    3.9430 C.3    45  ILE45       0.0001
     48  N         54.2690   21.7510    4.8930 N.3    69  PRO69      -0.2102
     49  CA        52.8050   21.6190    4.9300 C.3    69  PRO69       0.1504
     50  C         52.3010   20.2530    5.4170 C.2    69  PRO69       0.2575
     51  O         52.7500   19.1960    4.9370 O.2    69  PRO69      -0.2718
     52  CB        52.4040   21.8730    3.4850 C.3    69  PRO69       0.0282
     53  CG        53.5060   22.8050    2.9810 C.3    69  PRO69       0.0208
     54  CD        54.7330   22.1700    3.5570 C.3    69  PRO69       0.0893
     55  N         51.3850   20.2840    6.3790 N.am   70  LYS70      -0.1980
     56  CA        50.7460   19.0790    6.8960 C.3    70  LYS70       0.1596
     57  C         51.4790   18.1170    7.8030 C.2    70  LYS70       0.2287
     58  O         50.8380   17.2170    8.3550 O.2    70  LYS70      -0.2864
     59  CB        50.1590   18.2800    5.7220 C.3    70  LYS70       0.0298
     60  CG        49.3130   19.1430    4.7960 C.3    70  LYS70       0.0038
     61  CD        48.2240   19.8740    5.5620 C.3    70  LYS70       0.0206
     62  CE        47.8300   21.1510    4.8200 C.3    70  LYS70       0.1093
     63  NZ        46.7240   21.8880    5.4890 N.3    70  LYS70      -0.1314
     64  N         50.1930   32.2460    8.2600 N.3   112  GLU112     -0.1245
     65  CA        49.3800   31.8810    7.0970 C.3   112  GLU112      0.1567
     66  C         47.8920   31.7860    7.3410 C.2   112  GLU112      0.2260
     67  O         47.0800   32.3510    6.5790 O.2   112  GLU112     -0.2867
     68  CB        49.8370   30.5320    6.5120 C.3   112  GLU112      0.0388
     69  CG        50.9360   30.6550    5.5290 C.3   112  GLU112      0.1160
     70  CD        52.2950   30.3360    6.1400 C.2   112  GLU112      0.3649
     71  OE1       52.6950   31.0530    7.0830 O.co2 112  GLU112     -0.2457
     72  OE2       52.9550   29.3840    5.6680 O.co2 112  GLU112     -0.2457
     73  N         54.9380   27.6940    6.9310 N.3   135  HIS135     -0.1226
     74  CA        55.2250   26.7400    5.8010 C.3   135  HIS135      0.1752
     75  C         56.0020   27.3350    4.6230 C.2   135  HIS135      0.2595
     76  O         56.6520   26.6260    3.8320 O.2   135  HIS135     -0.2718
     77  CB        53.9410   26.2000    5.1500 C.3   135  HIS135      0.0759
     78  CG        53.0430   25.4660    6.0910 C.ar  135  HIS135      0.0818
     79  ND1       51.8260   24.9460    5.7050 N.ar  135  HIS135     -0.2268
     80  CD2       53.1950   25.1500    7.3990 C.ar  135  HIS135      0.1154
     81  CE1       51.2630   24.3400    6.7360 C.ar  135  HIS135      0.1986
     82  NE2       52.0770   24.4510    7.7800 N.ar  135  HIS135     -0.2212
     83  N         55.8680   28.6410    4.4730 N.am  136  ILE136     -0.1980
     84  CA        56.4870   29.3610    3.3600 C.3   136  ILE136      0.1595
     85  C         57.9280   28.8500    3.0350 C.2   136  ILE136      0.2287
     86  O         58.5770   28.1040    3.8390 O.2   136  ILE136     -0.2864
     87  CB        56.3830   30.9160    3.7210 C.3   136  ILE136      0.0276
     88  CG1       55.0280   31.4610    3.2420 C.3   136  ILE136      0.0022
     89  CG2       57.5510   31.7060    3.2140 C.3   136  ILE136      0.0022
     90  CD1       54.4840   32.6770    4.0380 C.3   136  ILE136      0.0001
     91  N         51.0340   20.5080   -4.3400 N.3   189  ILE189     -0.1231
     92  CA        50.8570   21.2860   -3.1110 C.3   189  ILE189      0.1692
     93  C         52.1450   21.4680   -2.3100 C.2   189  ILE189      0.2592
     94  O         52.4790   20.6290   -1.4690 O.2   189  ILE189     -0.2718
     95  CB        49.8100   20.5980   -2.1800 C.3   189  ILE189      0.0266
     96  CG1       48.6070   20.1720   -3.0190 C.3   189  ILE189      0.0019
     97  CG2       49.3990   21.5560   -1.0240 C.3   189  ILE189      0.0020
     98  CD1       47.3150   19.8460   -2.2660 C.3   189  ILE189      0.0001
     99  N         52.8700   22.5640   -2.5340 N.am  190  GLY190     -0.1957
    100  CA        54.0740   22.7480   -1.7330 C.3   190  GLY190      0.1869
    101  C         55.4180   22.6360   -2.4280 C.2   190  GLY190      0.2309
    102  O         56.4250   23.1020   -1.9010 O.2   190  GLY190     -0.2863
    103  N         61.9560   23.6800   -1.3000 N.3   196  HIS196     -0.1241
    104  CA        61.3280   23.8900    0.0080 C.3   196  HIS196      0.1621
    105  C         62.2490   23.0710    0.9420 C.2   196  HIS196      0.2264
    106  O         61.8210   22.2480    1.7370 O.2   196  HIS196     -0.2867
    107  CB        59.9020   23.3380    0.1140 C.3   196  HIS196      0.0745
    108  CG        59.1450   23.9180    1.2800 C.ar  196  HIS196      0.0817
    109  ND1       59.5380   23.7430    2.5980 N.ar  196  HIS196     -0.2268
    110  CD2       58.0460   24.7100    1.3170 C.ar  196  HIS196      0.1154
    111  CE1       58.7100   24.4020    3.3960 C.ar  196  HIS196      0.1986
    112  NE2       57.7980   25.0010    2.6450 N.ar  196  HIS196     -0.2212
@<TRIPOS>BOND
     1    22    20   ar
     2    22    21   ar
     3    20    18   ar
     4    21    19   ar
     5    18    17   ar
     6    18    16   ar
     7    19    16   ar
     8    17    15   ar
     9    16    14   ar
    10    15    14   ar
    11    14    13    1
    12    13    10    1
    13     1     2    1
    14     4     3    2
    15    10     9    1
    16    10    11    1
    17     3     9   am
    18     3     2    1
    19     2     5    1
    20     8     6    1
    21    11    23   am
    22    11    12    2
    23    26    25    2
    24    23    24    1
    25    91    92    1
    26     5     6    1
    27     6     7    1
    28    25    24    1
    29    25    33   am
    30    24    27    1
    31    92    93    1
    32    92    95    1
    33    96    98    1
    34    96    95    1
    35    30    28   ar
    36    30    32   ar
    37    27    28    1
    38    99    93   am
    39    99   100    1
    40    34    35    1
    41    34    33    1
    42    34    37    1
    43   101   102    2
    44   101   100    1
    45    35    36    2
    46    93    94    2
    47    28    29   ar
    48    95    97    1
    49    32    31   ar
    50   103   104    1
    51    37    39    1
    52    37    38    1
    53    29    31   ar
    54   104   107    1
    55   104   105    1
    56   107   108    1
    57   105   106    2
    58    42    43    2
    59    42    41    1
    60   108   110   ar
    61   108   109   ar
    62    40    41    1
    63   110   112   ar
    64    44    41    1
    65    44    46    1
    66    44    45    1
    67    45    47    1
    68   109   111   ar
    69   112   111   ar
    70    53    52    1
    71    53    54    1
    72    85    84    1
    73    85    86    2
    74    89    87    1
    75    88    87    1
    76    88    90    1
    77    84    87    1
    78    84    83    1
    79    52    49    1
    80    54    48    1
    81    76    75    2
    82    83    75   am
    83    75    74    1
    84    60    61    1
    85    60    59    1
    86    62    63    1
    87    62    61    1
    88    48    49    1
    89    49    50    1
    90    51    50    2
    91    77    74    1
    92    77    78    1
    93    50    55   am
    94    69    70    1
    95    69    68    1
    96    72    70   ar
    97    79    78   ar
    98    79    81   ar
    99    59    56    1
   100    74    73    1
   101    78    80   ar
   102    70    71   ar
   103    55    56    1
   104    68    65    1
   105    67    66    2
   106    81    82   ar
   107    56    57    1
   108    65    66    1
   109    65    64    1
   110    80    82   ar
   111    57    58    2
