@<TRIPOS>MOLECULE
tmp/2q3oB00.pdb
 232 230 0 0 0
SMALL
GASTEIGER

@<TRIPOS>ATOM
      1  N         70.9450   15.6640   52.9970 N.3    22  ALA22      -0.1231
      2  CA        70.5130   15.5310   51.6170 C.3    22  ALA22       0.1679
      3  C         69.9580   14.1500   51.3580 C.2    22  ALA22       0.2434
      4  O         70.4670   13.1610   51.8700 O.2    22  ALA22      -0.2733
      5  CB        71.6660   15.8330   50.6810 C.3    22  ALA22       0.0304
      6  N         68.8670   14.0630   50.5870 N.am   23  PRO23      -0.2718
      7  CA        68.3220   12.7280   50.3230 C.3    23  PRO23       0.1535
      8  C         69.4010   11.8080   49.7570 C.2    23  PRO23       0.2598
      9  O         70.0890   12.1490   48.7890 O.2    23  PRO23      -0.2715
     10  CB        67.1890   12.9960   49.3260 C.3    23  PRO23       0.0310
     11  CG        67.6080   14.2770   48.6450 C.3    23  PRO23       0.0237
     12  CD        68.1630   15.0940   49.8080 C.3    23  PRO23       0.0939
     13  N         69.5710   10.6510   50.3880 N.am   24  MET24      -0.1964
     14  CA        70.5710    9.7030   49.9340 C.3    24  MET24       0.1736
     15  C         70.1430    8.2630   50.0700 C.2    24  MET24       0.2617
     16  O         70.1540    7.7100   51.1650 O.2    24  MET24      -0.2715
     17  CB        71.8910    9.8940   50.6840 C.3    24  MET24       0.0427
     18  CG        72.7320   11.0670   50.1840 C.3    24  MET24       0.0599
     19  SD        74.1860   11.3550   51.2240 S.3    24  MET24      -0.1393
     20  CE        73.3770   11.6090   52.8130 C.3    24  MET24       0.0692
     21  N         69.7480    7.6630   48.9530 N.am   25  THR25      -0.1937
     22  CA        69.3890    6.2500   48.9290 C.3    25  THR25       0.2028
     23  C         70.5300    5.5610   49.6430 C.2    25  THR25       0.2642
     24  O         71.6960    5.8040   49.3230 O.2    25  THR25      -0.2714
     25  CB        69.3820    5.7020   47.4890 C.3    25  THR25       0.1808
     26  OG1       68.4490    6.4480   46.7080 O.3    25  THR25      -0.2208
     27  CG2       69.0360    4.2190   47.4710 C.3    25  THR25       0.0379
     28  N         70.2310    4.7090   50.6090 N.am   26  ARG26      -0.1963
     29  CA        71.3200    4.0290   51.2950 C.3    26  ARG26       0.1729
     30  C         71.1450    2.5360   51.1970 C.2    26  ARG26       0.2616
     31  O         71.9210    1.7780   51.7540 O.2    26  ARG26      -0.2715
     32  CB        71.4090    4.4950   52.7500 C.3    26  ARG26       0.0348
     33  CG        71.6990    6.0020   52.8630 C.3    26  ARG26       0.0492
     34  CD        72.9810    6.3520   52.0980 C.3    26  ARG26       0.2205
     35  NE        74.0710    5.4140   52.3930 N.pl3  26  ARG26      -0.0865
     36  CZ        74.8270    5.4370   53.4930 C.cat  26  ARG26       0.5346
     37  NH1       75.7910    4.5350   53.6590 N.pl3  26  ARG26       0.1354
     38  NH2       74.6390    6.3640   54.4220 N.pl3  26  ARG26       0.1354
     39  N         70.1080    2.1310   50.4710 N.am   27  CYS27      -0.1968
     40  CA        69.8140    0.7300   50.2360 C.3    27  CYS27       0.1712
     41  C         69.9990   -0.2040   51.4300 C.2    27  CYS27       0.2296
     42  O         70.5470   -1.2940   51.2820 O.2    27  CYS27      -0.2864
     43  CB        70.6590    0.2430   49.0590 C.3    27  CYS27       0.0983
     44  SG        70.5090    1.2970   47.6050 S.3    27  CYS27      -0.0798
     45  N         65.5630    8.5820   48.7590 N.3    56  GLY56      -0.1225
     46  CA        64.4810    8.4310   47.8000 C.3    56  GLY56       0.1811
     47  C         63.6130    7.2400   48.1680 C.2    56  GLY56       0.2280
     48  O         64.1310    6.1490   48.4260 O.2    56  GLY56      -0.2866
     49  N         67.2830    1.1630   42.3360 N.3    66  PHE66      -0.1241
     50  CA        68.3120    0.6960   43.2680 C.3    66  PHE66       0.1605
     51  C         67.6890   -0.4080   44.1140 C.2    66  PHE66       0.2264
     52  O         66.4680   -0.4770   44.2550 O.2    66  PHE66      -0.2867
     53  CB        68.7350    1.8310   44.2060 C.3    66  PHE66       0.0534
     54  CG        69.6190    2.8470   43.5640 C.ar   66  PHE66      -0.0203
     55  CD1       70.9980    2.6720   43.5610 C.ar   66  PHE66      -0.0042
     56  CD2       69.0770    3.9600   42.9190 C.ar   66  PHE66      -0.0042
     57  CE1       71.8310    3.5740   42.9310 C.ar   66  PHE66      -0.0003
     58  CE2       69.9050    4.8790   42.2790 C.ar   66  PHE66      -0.0003
     59  CZ        71.2890    4.6840   42.2840 C.ar   66  PHE66      -0.0000
     60  N         60.9740   11.7110   50.6900 N.3    98  GLN98      -0.1245
     61  CA        61.1570   12.0710   49.2890 C.3    98  GLN98       0.1566
     62  C         60.4390   11.0640   48.3840 C.2    98  GLN98       0.2260
     63  O         60.8390    9.9030   48.3160 O.2    98  GLN98      -0.2867
     64  CB        62.6380   12.1120   48.9360 C.3    98  GLN98       0.0367
     65  CG        62.8760   12.5930   47.5360 C.3    98  GLN98       0.0905
     66  CD        64.3110   12.4260   47.0950 C.2    98  GLN98       0.2608
     67  OE1       64.8620   11.3250   47.1500 O.2    98  GLN98      -0.2717
     68  NE2       64.9220   13.5110   46.6510 N.am   98  GLN98      -0.0878
     69  N         59.9660    9.2780   45.3430 N.3   100  TRP100     -0.1241
     70  CA        60.9070    9.0250   44.2680 C.3   100  TRP100      0.1605
     71  C         60.5230    8.0230   43.1970 C.2   100  TRP100      0.2264
     72  O         60.1210    6.8980   43.4830 O.2   100  TRP100     -0.2867
     73  CB        62.2330    8.5890   44.9000 C.3   100  TRP100      0.0550
     74  CG        63.3970    8.5270   43.9810 C.ar  100  TRP100      0.0003
     75  CD1       63.6350    9.3200   42.9000 C.ar  100  TRP100      0.0946
     76  CD2       64.5670    7.7150   44.1440 C.ar  100  TRP100      0.0152
     77  NE1       64.8870    9.0650   42.3860 N.ar  100  TRP100     -0.2442
     78  CE2       65.4780    8.0830   43.1320 C.ar  100  TRP100      0.0810
     79  CE3       64.9340    6.7150   45.0530 C.ar  100  TRP100      0.0012
     80  CZ2       66.7330    7.4880   43.0030 C.ar  100  TRP100      0.0191
     81  CZ3       66.1910    6.1220   44.9240 C.ar  100  TRP100      0.0001
     82  CH2       67.0690    6.5130   43.9060 C.ar  100  TRP100      0.0015
     83  N         60.9120   14.2600   44.4290 N.3   178  HIS178     -0.1241
     84  CA        62.2050   14.1420   43.8160 C.3   178  HIS178      0.1621
     85  C         61.9930   14.3630   42.3270 C.2   178  HIS178      0.2264
     86  O         61.5740   13.4560   41.6260 O.2   178  HIS178     -0.2867
     87  CB        62.7850   12.7480   44.0580 C.3   178  HIS178      0.0745
     88  CG        64.2050   12.6040   43.6030 C.ar  178  HIS178      0.0817
     89  ND1       64.7400   13.3700   42.5890 N.ar  178  HIS178     -0.2268
     90  CD2       65.2000   11.7820   44.0220 C.ar  178  HIS178      0.1154
     91  CE1       66.0030   13.0280   42.4080 C.ar  178  HIS178      0.1986
     92  NE2       66.3050   12.0680   43.2650 N.ar  178  HIS178     -0.2212
     93  N         67.9220   15.0800   39.1410 N.3   181  HIS181     -0.1241
     94  CA        68.9110   14.0640   38.8160 C.3   181  HIS181      0.1621
     95  C         68.6400   13.0690   37.6840 C.2   181  HIS181      0.2264
     96  O         69.1900   11.9600   37.6810 O.2   181  HIS181     -0.2867
     97  CB        69.2270   13.3130   40.1110 C.3   181  HIS181      0.0745
     98  CG        69.5690   14.2170   41.2590 C.ar  181  HIS181      0.0817
     99  ND1       69.7230   13.7600   42.5520 N.ar  181  HIS181     -0.2268
    100  CD2       69.8040   15.5540   41.3040 C.ar  181  HIS181      0.1154
    101  CE1       70.0390   14.7750   43.3400 C.ar  181  HIS181      0.1986
    102  NE2       70.0940   15.8740   42.6080 N.ar  181  HIS181     -0.2212
    103  N         65.7690   11.5400   36.9190 N.3   183  TYR183     -0.1241
    104  CA        64.7830   10.5040   37.1740 C.3   183  TYR183      0.1605
    105  C         63.4530   10.8150   36.4920 C.2   183  TYR183      0.2264
    106  O         63.3600   11.7970   35.7600 O.2   183  TYR183     -0.2867
    107  CB        64.6620   10.2910   38.6750 C.3   183  TYR183      0.0534
    108  CG        65.9780    9.7730   39.1910 C.ar  183  TYR183     -0.0201
    109  CD1       66.7900   10.5600   39.9950 C.ar  183  TYR183     -0.0009
    110  CD2       66.4350    8.5060   38.8290 C.ar  183  TYR183     -0.0009
    111  CE1       68.0240   10.1090   40.4340 C.ar  183  TYR183      0.0417
    112  CE2       67.6780    8.0380   39.2690 C.ar  183  TYR183      0.0417
    113  CZ        68.4650    8.8540   40.0720 C.ar  183  TYR183      0.1957
    114  OH        69.7020    8.4450   40.5070 O.3   183  TYR183     -0.2866
    115  N         62.0960   18.7780   44.8760 N.3   230  ARG230     -0.1245
    116  CA        63.4720   18.8820   44.3960 C.3   230  ARG230      0.1563
    117  C         63.6130   18.8410   42.8660 C.2   230  ARG230      0.2260
    118  O         62.9010   18.1120   42.1730 O.2   230  ARG230     -0.2867
    119  CB        64.3310   17.7750   45.0090 C.3   230  ARG230      0.0307
    120  CG        65.8020   18.1440   45.0210 C.3   230  ARG230      0.0489
    121  CD        66.6960   17.1200   45.7100 C.3   230  ARG230      0.2205
    122  NE        68.0190   17.6980   45.9540 N.pl3 230  ARG230     -0.0865
    123  CZ        69.0960   17.0020   46.3000 C.cat 230  ARG230      0.5346
    124  NH1       69.0370   15.6890   46.4440 N.pl3 230  ARG230      0.1354
    125  NH2       70.2430   17.6240   46.5120 N.pl3 230  ARG230      0.1354
    126  N         73.1430   14.6250   35.2340 N.3   237  HIS237     -0.1241
    127  CA        73.1990   13.2720   35.7710 C.3   237  HIS237      0.1621
    128  C         72.2790   12.3870   34.9290 C.2   237  HIS237      0.2264
    129  O         71.2090   12.8210   34.4980 O.2   237  HIS237     -0.2867
    130  CB        72.6960   13.3150   37.2230 C.3   237  HIS237      0.0745
    131  CG        72.6100   11.9820   37.9040 C.ar  237  HIS237      0.0817
    132  ND1       71.7050   11.7310   38.9130 N.ar  237  HIS237     -0.2268
    133  CD2       73.3330   10.8440   37.7570 C.ar  237  HIS237      0.1154
    134  CE1       71.8710   10.4950   39.3560 C.ar  237  HIS237      0.1986
    135  NE2       72.8530    9.9360   38.6720 N.ar  237  HIS237     -0.2212
    136  N         71.8160   22.7560   47.5410 N.3   302  SER302     -0.1202
    137  CA        72.4460   21.4530   47.6210 C.3   302  SER302      0.2020
    138  C         73.4500   21.2220   46.4960 C.2   302  SER302      0.2619
    139  O         73.3040   21.7630   45.4010 O.2   302  SER302     -0.2717
    140  CB        71.3880   20.3520   47.5700 C.3   302  SER302      0.2103
    141  OG        71.9480   19.1130   47.9670 O.3   302  SER302     -0.2182
    142  N         74.4720   20.4180   46.7650 N.am  303  GLY303     -0.1942
    143  CA        75.4360   20.1090   45.7260 C.3   303  GLY303      0.2014
    144  C         76.8680   20.3700   46.1320 C.2   303  GLY303      0.2639
    145  O         77.3750   21.4630   45.9350 O.2   303  GLY303     -0.2714
    146  N         77.5140   19.3640   46.7090 N.am  304  GLY304     -0.1939
    147  CA        78.8950   19.5230   47.1220 C.3   304  GLY304      0.2014
    148  C         79.1540   20.7290   48.0040 C.2   304  GLY304      0.2638
    149  O         80.1700   21.4020   47.8530 O.2   304  GLY304     -0.2714
    150  N         78.2490   21.0170   48.9280 N.am  305  PHE305     -0.1973
    151  CA        78.4680   22.1580   49.8040 C.3   305  PHE305      0.1639
    152  C         79.5100   21.8610   50.8600 C.2   305  PHE305      0.2290
    153  O         79.7750   20.7000   51.1870 O.2   305  PHE305     -0.2864
    154  CB        77.1740   22.5880   50.4990 C.3   305  PHE305      0.0560
    155  CG        76.3570   23.5300   49.6880 C.ar  305  PHE305     -0.0200
    156  CD1       75.5650   23.0650   48.6440 C.ar  305  PHE305     -0.0042
    157  CD2       76.4500   24.8980   49.9100 C.ar  305  PHE305     -0.0042
    158  CE1       74.8810   23.9550   47.8290 C.ar  305  PHE305     -0.0003
    159  CE2       75.7750   25.7930   49.1050 C.ar  305  PHE305     -0.0003
    160  CZ        74.9870   25.3220   48.0560 C.ar  305  PHE305     -0.0000
    161  N         71.3830   21.6600   52.0790 N.3   323  SER323     -0.1202
    162  CA        71.4200   20.2300   52.3580 C.3   323  SER323      0.2020
    163  C         72.7750   19.6280   52.0290 C.2   323  SER323      0.2619
    164  O         73.4020   19.9560   51.0130 O.2   323  SER323     -0.2717
    165  CB        70.3010   19.4850   51.6080 C.3   323  SER323      0.2103
    166  OG        70.3610   19.6750   50.2040 O.3   323  SER323     -0.2182
    167  N         73.2290   18.7540   52.9160 N.am  324  TYR324     -0.1961
    168  CA        74.5090   18.0800   52.7890 C.3   324  TYR324      0.1771
    169  C         74.2390   16.5960   52.7200 C.2   324  TYR324      0.2620
    170  O         73.3750   16.0910   53.4340 O.2   324  TYR324     -0.2715
    171  CB        75.3780   18.3660   54.0080 C.3   324  TYR324      0.0574
    172  CG        75.7550   19.8190   54.1530 C.ar  324  TYR324     -0.0198
    173  CD1       74.8840   20.7380   54.7340 C.ar  324  TYR324     -0.0009
    174  CD2       76.9840   20.2760   53.6860 C.ar  324  TYR324     -0.0009
    175  CE1       75.2330   22.0820   54.8410 C.ar  324  TYR324      0.0417
    176  CE2       77.3480   21.6090   53.7910 C.ar  324  TYR324      0.0417
    177  CZ        76.4720   22.5090   54.3670 C.ar  324  TYR324      0.1957
    178  OH        76.8470   23.8340   54.4590 O.3   324  TYR324     -0.2866
    179  N         74.9820   15.8960   51.8720 N.am  325  GLY325     -0.1940
    180  CA        74.7840   14.4720   51.7460 C.3   325  GLY325      0.2014
    181  C         75.9040   13.6180   52.3140 C.2   325  GLY325      0.2639
    182  O         75.8070   13.1180   53.4430 O.2   325  GLY325     -0.2714
    183  N         76.9610   13.4430   51.5230 N.am  326  ARG326     -0.1963
    184  CA        78.1060   12.6230   51.9120 C.3   326  ARG326      0.1729
    185  C         78.7210   13.0430   53.2410 C.2   326  ARG326      0.2616
    186  O         79.0250   12.1950   54.0870 O.2   326  ARG326     -0.2715
    187  CB        79.1720   12.6410   50.7970 C.3   326  ARG326      0.0348
    188  CG        78.7560   11.8860   49.5260 C.3   326  ARG326      0.0492
    189  CD        79.7710   12.0230   48.3770 C.3   326  ARG326      0.2205
    190  NE        79.7510   13.3650   47.8080 N.pl3 326  ARG326     -0.0865
    191  CZ        80.5960   13.8340   46.8960 C.cat 326  ARG326      0.5346
    192  NH1       81.5650   13.0690   46.4140 N.pl3 326  ARG326      0.1354
    193  NH2       80.4790   15.0890   46.4830 N.pl3 326  ARG326      0.1354
    194  N         78.8970   14.3470   53.4380 N.am  327  LEU327     -0.1977
    195  CA        79.4720   14.8220   54.6910 C.3   327  LEU327      0.1596
    196  C         78.6090   14.3340   55.8330 C.2   327  LEU327      0.2287
    197  O         79.0970   14.1350   56.9460 O.2   327  LEU327     -0.2864
    198  CB        79.5350   16.3500   54.7300 C.3   327  LEU327      0.0297
    199  CG        80.6390   17.0260   53.9200 C.3   327  LEU327      0.0022
    200  CD1       80.6140   18.5240   54.2090 C.3   327  LEU327      0.0001
    201  CD2       81.9960   16.4270   54.2800 C.3   327  LEU327      0.0001
    202  N         76.5990   11.4810   55.5560 N.3   329  ILE329     -0.1245
    203  CA        76.7200   10.0280   55.6260 C.3   329  ILE329      0.1561
    204  C         77.8960    9.7160   56.5560 C.2   329  ILE329      0.2260
    205  O         77.7980    8.8790   57.4600 O.2   329  ILE329     -0.2867
    206  CB        77.0490    9.3950   54.2580 C.3   329  ILE329      0.0252
    207  CG1       75.7960    9.3430   53.3770 C.3   329  ILE329      0.0019
    208  CG2       77.6310    7.9820   54.4570 C.3   329  ILE329      0.0019
    209  CD1       76.0490    8.8060   51.9850 C.3   329  ILE329      0.0001
    210  N         78.2240    3.1150   50.1310 N.3   352  PHE352     -0.1227
    211  CA        77.0250    3.9320   50.0010 C.3   352  PHE352      0.1736
    212  C         75.7990    3.0730   49.7230 C.2   352  PHE352      0.2595
    213  O         74.7240    3.3320   50.2520 O.2   352  PHE352     -0.2718
    214  CB        77.1390    4.9250   48.8490 C.3   352  PHE352      0.0547
    215  CG        78.0960    6.0330   49.0900 C.ar  352  PHE352     -0.0202
    216  CD1       78.5530    6.3140   50.3740 C.ar  352  PHE352     -0.0042
    217  CD2       78.5100    6.8330   48.0320 C.ar  352  PHE352     -0.0042
    218  CE1       79.4090    7.3870   50.6000 C.ar  352  PHE352     -0.0003
    219  CE2       79.3630    7.9080   48.2420 C.ar  352  PHE352     -0.0003
    220  CZ        79.8120    8.1860   49.5300 C.ar  352  PHE352     -0.0000
    221  N         75.9760    2.0570   48.8880 N.am  353  TYR353     -0.1976
    222  CA        74.8760    1.2010   48.4640 C.3   353  TYR353      0.1639
    223  C         74.7380   -0.0880   49.2580 C.2   353  TYR353      0.2290
    224  O         73.6200   -0.5530   49.4830 O.2   353  TYR353     -0.2864
    225  CB        75.0280    0.8770   46.9700 C.3   353  TYR353      0.0560
    226  CG        75.5000    2.0570   46.1420 C.ar  353  TYR353     -0.0198
    227  CD1       74.7920    2.4800   45.0220 C.ar  353  TYR353     -0.0009
    228  CD2       76.6550    2.7560   46.4860 C.ar  353  TYR353     -0.0009
    229  CE1       75.2210    3.5660   44.2730 C.ar  353  TYR353      0.0417
    230  CE2       77.0940    3.8390   45.7550 C.ar  353  TYR353      0.0417
    231  CZ        76.3760    4.2480   44.6530 C.ar  353  TYR353      0.1957
    232  OH        76.7900    5.3680   43.9700 O.3   353  TYR353     -0.2866
@<TRIPOS>BOND
     1   129   128    2
     2   128   127    1
     3   126   127    1
     4   106   105    2
     5   127   130    1
     6   105   104    1
     7   103   104    1
     8   104   107    1
     9   130   131    1
    10    96    95    2
    11    95    94    1
    12   133   131   ar
    13   133   135   ar
    14   131   132   ar
    15   135   134   ar
    16   107   108    1
    17    94    93    1
    18    94    97    1
    19   110   108   ar
    20   110   112   ar
    21   132   134   ar
    22   108   109   ar
    23   112   113   ar
    24   109   111   ar
    25   113   111   ar
    26   113   114    1
    27    97    98    1
    28    98   100   ar
    29    98    99   ar
    30   100   102   ar
    31    86    85    2
    32   118   117    2
    33    58    59   ar
    34    58    56   ar
    35    59    57   ar
    36    85    84    1
    37    49    50    1
    38    77    75   ar
    39    77    78   ar
    40    91    89   ar
    41    91    92   ar
    42    99   101   ar
    43    89    88   ar
    44   102   101   ar
    45   117   116    1
    46    75    74   ar
    47    56    54   ar
    48    57    55   ar
    49    80    78   ar
    50    80    82   ar
    51    78    76   ar
    52    71    72    2
    53    71    70    1
    54    92    90   ar
    55    50    51    1
    56    50    53    1
    57    55    54   ar
    58    54    53    1
    59    88    90   ar
    60    88    87    1
    61    84    87    1
    62    84    83    1
    63    82    81   ar
    64   232   231    1
    65    74    76   ar
    66    74    73    1
    67    51    52    2
    68    76    79   ar
    69    70    73    1
    70    70    69    1
    71   229   231   ar
    72   229   227   ar
    73   116   115    1
    74   116   119    1
    75   231   230   ar
    76    81    79   ar
    77   119   120    1
    78   120   121    1
    79   227   226   ar
    80   139   138    2
    81   121   122    1
    82   143   144    1
    83   143   142    1
    84   230   228   ar
    85   145   144    2
    86   122   123    2
    87   144   146   am
    88   226   228   ar
    89   226   225    1
    90   123   124    1
    91   123   125    1
    92   192   191    1
    93   193   191    1
    94   138   142   am
    95   138   137    1
    96    68    66   am
    97    26    25    1
    98   146   147    1
    99   191   190    2
   100   225   222    1
   101    66    67    2
   102    66    65    1
   103   147   148    1
   104    27    25    1
   105    25    22    1
   106    65    64    1
   107   136   137    1
   108   140   137    1
   109   140   141    1
   110    44    43    1
   111    46    47    1
   112    46    45    1
   113   190   189    1
   114   158   160   ar
   115   158   156   ar
   116   149   148    2
   117   148   150   am
   118   217   219   ar
   119   217   215   ar
   120   160   159   ar
   121    47    48    2
   122   219   220   ar
   123    63    62    2
   124   189   188    1
   125    62    61    1
   126   222   221    1
   127   222   223    1
   128   156   155   ar
   129    11    10    1
   130    11    12    1
   131     9     8    2
   132   214   215    1
   133   214   211    1
   134   221   212   am
   135   150   151    1
   136    22    21    1
   137    22    23    1
   138    64    61    1
   139    21    15   am
   140    43    40    1
   141   215   216   ar
   142   159   157   ar
   143   223   224    2
   144    61    60    1
   145    24    23    2
   146    10     7    1
   147   188   187    1
   148   220   218   ar
   149    23    28   am
   150   155   157   ar
   151   155   154    1
   152   212   211    1
   153   212   213    2
   154     8     7    1
   155     8    13   am
   156   151   154    1
   157   151   152    1
   158    12     6    1
   159    14    15    1
   160    14    13    1
   161    14    17    1
   162   211   210    1
   163    15    16    2
   164    18    17    1
   165    18    19    1
   166   166   165    1
   167    40    39    1
   168    40    41    1
   169     7     6    1
   170   216   218   ar
   171    39    30   am
   172     6     3   am
   173    28    29    1
   174     5     2    1
   175   187   184    1
   176   152   153    2
   177   164   163    2
   178    30    29    1
   179    30    31    2
   180    19    20    1
   181    42    41    2
   182    29    32    1
   183     3     2    1
   184     3     4    2
   185   183   184    1
   186   183   181   am
   187   165   162    1
   188     2     1    1
   189   180   179    1
   190   180   181    1
   191   179   169   am
   192   184   185    1
   193   209   207    1
   194   163   162    1
   195   163   167   am
   196   161   162    1
   197    34    35    1
   198    34    33    1
   199   181   182    2
   200    35    36    2
   201   169   168    1
   202   169   170    2
   203    32    33    1
   204   168   167    1
   205   168   171    1
   206   185   194   am
   207   185   186    2
   208   207   206    1
   209   194   195    1
   210    36    37    1
   211    36    38    1
   212   174   176   ar
   213   174   172   ar
   214   176   177   ar
   215   199   200    1
   216   199   201    1
   217   199   198    1
   218   171   172    1
   219   172   173   ar
   220   206   208    1
   221   206   203    1
   222   177   178    1
   223   177   175   ar
   224   195   198    1
   225   195   196    1
   226   173   175   ar
   227   202   203    1
   228   203   204    1
   229   196   197    2
   230   204   205    2
