@<TRIPOS>MOLECULE
tmp/2q3yA00.pdb
 154 145 0 0 0
SMALL
GASTEIGER

@<TRIPOS>ATOM
      1  N         -4.8740  -24.8640  -26.4560 N.3    41  MET41      -0.1230
      2  CA        -4.1120  -23.7040  -26.0140 C.3    41  MET41       0.1702
      3  C         -3.6000  -22.9300  -27.2190 C.2    41  MET41       0.2592
      4  O         -3.7300  -21.7100  -27.2750 O.2    41  MET41      -0.2718
      5  CB        -2.9310  -24.1300  -25.1350 C.3    41  MET41       0.0401
      6  CG        -2.2000  -22.9580  -24.4690 C.3    41  MET41       0.0596
      7  SD        -3.2260  -22.0540  -23.2620 S.3    41  MET41      -0.1393
      8  CE        -2.9770  -23.0860  -21.7960 C.3    41  MET41       0.0692
      9  N         -3.0160  -23.6420  -28.1810 N.am   42  VAL42      -0.1980
     10  CA        -2.5030  -23.0050  -29.3920 C.3    42  VAL42       0.1595
     11  C         -3.6240  -22.2100  -30.0490 C.2    42  VAL42       0.2287
     12  O         -3.4290  -21.0680  -30.4490 O.2    42  VAL42      -0.2864
     13  CB        -1.9580  -24.0600  -30.4020 C.3    42  VAL42       0.0276
     14  CG1       -1.5430  -23.3760  -31.7120 C.3    42  VAL42       0.0022
     15  CG2       -0.7580  -24.7950  -29.7950 C.3    42  VAL42       0.0022
     16  N         -4.5790  -18.9740  -28.1260 N.3    45  VAL45      -0.1231
     17  CA        -3.5680  -17.9420  -28.3130 C.3    45  VAL45       0.1692
     18  C         -3.7560  -17.2540  -29.6680 C.2    45  VAL45       0.2591
     19  O         -3.8220  -16.0250  -29.7470 O.2    45  VAL45      -0.2718
     20  CB        -2.1500  -18.5160  -28.2340 C.3    45  VAL45       0.0266
     21  CG1       -1.1410  -17.4600  -28.6450 C.3    45  VAL45       0.0020
     22  CG2       -1.8590  -18.9660  -26.8170 C.3    45  VAL45       0.0020
     23  N         -3.8600  -18.0470  -30.7300 N.am   46  LYS46      -0.1980
     24  CA        -4.0460  -17.4910  -32.0690 C.3    46  LYS46       0.1596
     25  C         -5.3500  -16.6950  -32.1450 C.2    46  LYS46       0.2287
     26  O         -5.4590  -15.7310  -32.9050 O.2    46  LYS46      -0.2864
     27  CB        -4.0430  -18.6160  -33.1130 C.3    46  LYS46       0.0298
     28  CG        -2.7850  -19.4840  -33.0630 C.3    46  LYS46       0.0038
     29  CD        -2.8220  -20.6400  -34.0650 C.3    46  LYS46       0.0206
     30  CE        -2.8210  -20.1410  -35.5010 C.3    46  LYS46       0.1093
     31  NZ        -2.7010  -21.2500  -36.4950 N.3    46  LYS46      -0.1314
     32  N         -4.8900  -13.1460  -30.1850 N.3    49  LYS49      -0.1245
     33  CA        -4.1430  -12.1820  -30.9770 C.3    49  LYS49       0.1561
     34  C         -5.0300  -11.5130  -32.0220 C.2    49  LYS49       0.2260
     35  O         -4.8200  -10.3540  -32.3720 O.2    49  LYS49      -0.2867
     36  CB        -2.9530  -12.8680  -31.6550 C.3    49  LYS49       0.0271
     37  CG        -1.9910  -13.5480  -30.6800 C.3    49  LYS49       0.0035
     38  CD        -0.6500  -13.8840  -31.3370 C.3    49  LYS49       0.0206
     39  CE        -0.8190  -14.7970  -32.5520 C.3    49  LYS49       0.1093
     40  NZ         0.4550  -14.9890  -33.3160 N.3    49  LYS49      -0.1314
     41  N         -7.0000   -6.7620  -28.0070 N.3    54  PHE54      -0.1227
     42  CA        -6.0610   -7.5620  -27.2290 C.3    54  PHE54       0.1736
     43  C         -4.6110   -7.1580  -27.4870 C.2    54  PHE54       0.2595
     44  O         -3.7950   -7.1050  -26.5650 O.2    54  PHE54      -0.2718
     45  CB        -6.2410   -9.0510  -27.5380 C.3    54  PHE54       0.0547
     46  CG        -5.4830   -9.9550  -26.6090 C.ar   54  PHE54      -0.0202
     47  CD1       -5.8680  -10.0860  -25.2780 C.ar   54  PHE54      -0.0042
     48  CD2       -4.3710  -10.6590  -27.0560 C.ar   54  PHE54      -0.0042
     49  CE1       -5.1530  -10.9070  -24.4030 C.ar   54  PHE54      -0.0003
     50  CE2       -3.6510  -11.4800  -26.1920 C.ar   54  PHE54      -0.0003
     51  CZ        -4.0420  -11.6050  -24.8620 C.ar   54  PHE54      -0.0000
     52  N         -4.2890   -6.8750  -28.7420 N.am   55  ARG55      -0.1980
     53  CA        -2.9330   -6.4810  -29.0890 C.3    55  ARG55       0.1597
     54  C         -2.5350   -5.1160  -28.5260 C.2    55  ARG55       0.2287
     55  O         -1.3500   -4.8280  -28.3770 O.2    55  ARG55      -0.2864
     56  CB        -2.7530   -6.5040  -30.6080 C.3    55  ARG55       0.0334
     57  CG        -2.4890   -7.8990  -31.1650 C.3    55  ARG55       0.0492
     58  CD        -1.2180   -8.4900  -30.5530 C.3    55  ARG55       0.2205
     59  NE        -0.7780   -9.7140  -31.2220 N.pl3  55  ARG55      -0.0865
     60  CZ        -0.4560   -9.7930  -32.5130 C.cat  55  ARG55       0.5346
     61  NH1       -0.5250   -8.7180  -33.2890 N.pl3  55  ARG55       0.1354
     62  NH2       -0.0590  -10.9490  -33.0300 N.pl3  55  ARG55       0.1354
     63  N          2.5290   -6.8990  -23.6530 N.3    59  LEU59      -0.1231
     64  CA         2.7440   -8.3270  -23.8380 C.3    59  LEU59       0.1693
     65  C          2.6460   -9.0600  -22.5020 C.2    59  LEU59       0.2592
     66  O          2.0950  -10.1580  -22.4310 O.2    59  LEU59      -0.2718
     67  CB         4.1110   -8.5760  -24.4810 C.3    59  LEU59       0.0284
     68  CG         4.1450   -9.4610  -25.7340 C.3    59  LEU59       0.0019
     69  CD1        5.5380   -9.4300  -26.3480 C.3    59  LEU59       0.0001
     70  CD2        3.7530  -10.8850  -25.3750 C.3    59  LEU59       0.0001
     71  N          3.1740   -8.4480  -21.4470 N.am   60  ASP60      -0.1974
     72  CA         3.1340   -9.0540  -20.1190 C.3    60  ASP60       0.1709
     73  C          1.7040   -9.3430  -19.6860 C.2    60  ASP60       0.2293
     74  O          1.4210  -10.3980  -19.1170 O.2    60  ASP60      -0.2864
     75  CB         3.7910   -8.1390  -19.0860 C.3    60  ASP60       0.1436
     76  CG         5.2950   -8.0900  -19.2270 C.2    60  ASP60       0.3671
     77  OD1        5.7790   -7.7390  -20.3230 O.co2  60  ASP60      -0.2456
     78  OD2        5.9940   -8.4030  -18.2380 O.co2  60  ASP60      -0.2456
     79  N         -0.9840   -9.6190  -21.7300 N.3    62  GLN62      -0.1231
     80  CA        -1.4820  -10.6380  -22.6520 C.3    62  GLN62       0.1698
     81  C         -1.1370  -12.0190  -22.1070 C.2    62  GLN62       0.2592
     82  O         -1.9780  -12.9150  -22.0640 O.2    62  GLN62      -0.2718
     83  CB        -0.8490  -10.4620  -24.0370 C.3    62  GLN62       0.0381
     84  CG        -1.3890   -9.2880  -24.8350 C.3    62  GLN62       0.0905
     85  CD        -0.6960   -9.1330  -26.1750 C.2    62  GLN62       0.2608
     86  OE1       -0.5560  -10.0930  -26.9270 O.2    62  GLN62      -0.2717
     87  NE2       -0.2650   -7.9180  -26.4820 N.am   62  GLN62      -0.0878
     88  N          0.1130  -12.1670  -21.6860 N.am   63  MET63      -0.1979
     89  CA         0.6070  -13.4120  -21.1300 C.3    63  MET63       0.1605
     90  C         -0.1840  -13.7550  -19.8690 C.2    63  MET63       0.2287
     91  O         -0.7490  -14.8470  -19.7490 O.2    63  MET63      -0.2864
     92  CB         2.0880  -13.2630  -20.7710 C.3    63  MET63       0.0413
     93  CG         2.8470  -14.5680  -20.7150 C.3    63  MET63       0.0598
     94  SD         3.7490  -14.8830  -22.2570 S.3    63  MET63      -0.1393
     95  CE         2.4150  -14.9770  -23.4520 C.3    63  MET63       0.0692
     96  N         -4.1540  -14.7030  -20.4510 N.3    66  ILE66      -0.1231
     97  CA        -4.3280  -16.0470  -20.9920 C.3    66  ILE66       0.1692
     98  C         -3.9420  -17.0880  -19.9430 C.2    66  ILE66       0.2591
     99  O         -4.5990  -18.1130  -19.7820 O.2    66  ILE66      -0.2718
    100  CB        -3.4570  -16.2460  -22.2540 C.3    66  ILE66       0.0266
    101  CG1       -4.0090  -15.3890  -23.3990 C.3    66  ILE66       0.0019
    102  CG2       -3.4220  -17.7160  -22.6500 C.3    66  ILE66       0.0020
    103  CD1       -3.1560  -15.4330  -24.6650 C.3    66  ILE66       0.0001
    104  N         -2.8690  -16.8060  -19.2250 N.am   67  GLN67      -0.1979
    105  CA        -2.3780  -17.6980  -18.1890 C.3    67  GLN67       0.1601
    106  C         -3.4110  -17.9120  -17.0790 C.2    67  GLN67       0.2287
    107  O         -3.5660  -19.0220  -16.5630 O.2    67  GLN67      -0.2864
    108  CB        -1.0850  -17.1160  -17.6140 C.3    67  GLN67       0.0394
    109  CG        -0.3610  -17.9820  -16.6110 C.3    67  GLN67       0.0908
    110  CD         1.0750  -17.5250  -16.4160 C.2    67  GLN67       0.2608
    111  OE1        1.8780  -17.5410  -17.3550 O.2    67  GLN67      -0.2717
    112  NE2        1.4040  -17.1060  -15.1980 N.am   67  GLN67      -0.0878
    113  N          4.3050  -30.2420  -23.2310 N.3   219  GLU219     -0.1231
    114  CA         5.2700  -29.2150  -22.8480 C.3   219  GLU219      0.1699
    115  C          4.7060  -27.8160  -22.6540 C.2   219  GLU219      0.2592
    116  O          4.9850  -27.1650  -21.6480 O.2   219  GLU219     -0.2718
    117  CB         6.4220  -29.1640  -23.8590 C.3   219  GLU219      0.0402
    118  CG         7.5450  -28.2130  -23.4570 C.3   219  GLU219      0.1161
    119  CD         8.7730  -28.3250  -24.3530 C.2   219  GLU219      0.3649
    120  OE1        8.6560  -28.0820  -25.5770 O.co2 219  GLU219     -0.2457
    121  OE2        9.8610  -28.6550  -23.8280 O.co2 219  GLU219     -0.2457
    122  N          3.9200  -27.3480  -23.6140 N.am  220  MET220     -0.1979
    123  CA         3.3440  -26.0200  -23.5120 C.3   220  MET220      0.1605
    124  C          2.5560  -25.8350  -22.2220 C.2   220  MET220      0.2287
    125  O          2.6280  -24.7810  -21.5940 O.2   220  MET220     -0.2864
    126  CB         2.4450  -25.7370  -24.7100 C.3   220  MET220      0.0413
    127  CG         1.8340  -24.3530  -24.6720 C.3   220  MET220      0.0598
    128  SD         1.1260  -23.8810  -26.2540 S.3   220  MET220     -0.1393
    129  CE         1.7700  -22.2130  -26.4260 C.3   220  MET220      0.0692
    130  N          4.8430  -25.5260  -18.9680 N.3   223  GLU223     -0.1231
    131  CA         5.4070  -24.2030  -18.7060 C.3   223  GLU223      0.1699
    132  C          4.3610  -23.2550  -18.1260 C.2   223  GLU223      0.2592
    133  O          4.6240  -22.5580  -17.1400 O.2   223  GLU223     -0.2718
    134  CB         5.9840  -23.6050  -19.9860 C.3   223  GLU223      0.0402
    135  CG         6.9450  -24.5230  -20.7020 C.3   223  GLU223      0.1161
    136  CD         7.5760  -23.8690  -21.9050 C.2   223  GLU223      0.3649
    137  OE1        6.8700  -23.1230  -22.6140 O.co2 223  GLU223     -0.2457
    138  OE2        8.7750  -24.1130  -22.1460 O.co2 223  GLU223     -0.2457
    139  N          3.1810  -23.2340  -18.7450 N.am  224  ILE224     -0.1980
    140  CA         2.0840  -22.3930  -18.2880 C.3   224  ILE224      0.1595
    141  C          1.7470  -22.7020  -16.8300 C.2   224  ILE224      0.2287
    142  O          1.7990  -21.8230  -15.9690 O.2   224  ILE224     -0.2864
    143  CB         0.8030  -22.6370  -19.1060 C.3   224  ILE224      0.0276
    144  CG1        1.0750  -22.4370  -20.5950 C.3   224  ILE224      0.0022
    145  CG2       -0.3010  -21.7210  -18.6150 C.3   224  ILE224      0.0022
    146  CD1        1.6000  -21.0870  -20.9390 C.3   224  ILE224      0.0001
    147  N          4.3570  -21.9020  -14.0690 N.3   227  ASP227     -0.1239
    148  CA         4.4420  -20.4890  -13.7320 C.3   227  ASP227      0.1674
    149  C          3.1610  -20.0080  -13.0490 C.2   227  ASP227      0.2266
    150  O          3.2020  -19.2470  -12.0830 O.2   227  ASP227     -0.2867
    151  CB         4.6780  -19.6710  -15.0000 C.3   227  ASP227      0.1410
    152  CG         4.8130  -18.1890  -14.7190 C.2   227  ASP227      0.3668
    153  OD1        4.3310  -17.3840  -15.5470 O.co2 227  ASP227     -0.2456
    154  OD2        5.4110  -17.8290  -13.6780 O.co2 227  ASP227     -0.2456
@<TRIPOS>BOND
     1    31    30    1
     2    30    29    1
     3    29    28    1
     4    40    39    1
     5    61    60    1
     6    27    28    1
     7    27    24    1
     8    62    60    1
     9    26    25    2
    10    39    38    1
    11    60    59    2
    12    35    34    2
    13    25    24    1
    14    24    23    1
    15    34    33    1
    16    14    13    1
    17    36    33    1
    18    36    37    1
    19    38    37    1
    20    59    58    1
    21    57    56    1
    22    57    58    1
    23    33    32    1
    24    23    18   am
    25    56    53    1
    26    12    11    2
    27    13    15    1
    28    13    10    1
    29    11    10    1
    30    19    18    2
    31    18    17    1
    32    10     9    1
    33    53    52    1
    34    53    54    1
    35    52    43   am
    36    21    20    1
    37    54    55    2
    38    17    20    1
    39    17    16    1
    40    20    22    1
    41     9     3   am
    42    41    42    1
    43    45    42    1
    44    45    46    1
    45    43    42    1
    46    43    44    2
    47     4     3    2
    48     3     2    1
    49    48    46   ar
    50    48    50   ar
    51    86    85    2
    52    46    47   ar
    53    87    85   am
    54     1     2    1
    55   129   128    1
    56    69    68    1
    57   128   127    1
    58    50    51   ar
    59    85    84    1
    60     2     5    1
    61    68    70    1
    62    68    67    1
    63   120   119   ar
    64    47    49   ar
    65     5     6    1
    66    51    49   ar
    67    84    83    1
    68   126   127    1
    69   126   123    1
    70   103   101    1
    71    67    64    1
    72     6     7    1
    73   119   121   ar
    74   119   118    1
    75    83    80    1
    76   117   118    1
    77   117   114    1
    78    64    63    1
    79    64    65    1
    80   122   123    1
    81   122   115   am
    82   123   124    1
    83    95    94    1
    84   101   100    1
    85     7     8    1
    86   113   114    1
    87   114   115    1
    88   115   116    2
    89    80    81    1
    90    80    79    1
    91   102   100    1
    92   137   136   ar
    93    65    66    2
    94    65    71   am
    95    94    93    1
    96   100    97    1
    97   124   125    2
    98   138   136   ar
    99    81    82    2
   100    81    88   am
   101   136   135    1
   102    88    89    1
   103    71    72    1
   104    89    92    1
   105    89    90    1
   106    97    96    1
   107    97    98    1
   108   146   144    1
   109    92    93    1
   110   135   134    1
   111   144   143    1
   112    77    76   ar
   113    72    73    1
   114    72    75    1
   115   134   131    1
   116    98    99    2
   117    98   104   am
   118    90    91    2
   119    73    74    2
   120    76    75    1
   121    76    78   ar
   122   104   105    1
   123   143   145    1
   124   143   140    1
   125   130   131    1
   126   139   140    1
   127   139   132   am
   128   131   132    1
   129   140   141    1
   130   105   108    1
   131   105   106    1
   132   132   133    2
   133   108   109    1
   134   111   110    2
   135   106   107    2
   136   141   142    2
   137   109   110    1
   138   110   112   am
   139   153   152   ar
   140   151   152    1
   141   151   148    1
   142   152   154   ar
   143   147   148    1
   144   148   149    1
   145   149   150    2
