@<TRIPOS>MOLECULE
tmp/2q3zA00.pdb
 223 221 0 0 0
SMALL
GASTEIGER

@<TRIPOS>ATOM
      1  N         -2.4610    5.4000   25.7230 N.3   169  GLN169     -0.1231
      2  CA        -2.6770    4.3500   24.7470 C.3   169  GLN169      0.1698
      3  C         -3.1800    5.0190   23.4500 C.2   169  GLN169      0.2592
      4  O         -2.9760    6.2130   23.2480 O.2   169  GLN169     -0.2718
      5  CB        -3.7640    3.3790   25.2390 C.3   169  GLN169      0.0381
      6  CG        -3.5410    2.7840   26.6260 C.3   169  GLN169      0.0905
      7  CD        -4.7030    1.8640   27.0530 C.2   169  GLN169      0.2608
      8  OE1       -4.5030    0.9060   27.7800 O.2   169  GLN169     -0.2717
      9  NE2       -5.9060    2.1780   26.6220 N.am  169  GLN169     -0.0878
     10  N         -3.8380    4.2460   22.5930 N.am  170  GLY170     -0.1957
     11  CA        -4.2630    4.7140   21.2680 C.3   170  GLY170      0.1869
     12  C         -3.1130    4.6020   20.2810 C.2   170  GLY170      0.2309
     13  O         -2.5240    3.5300   20.0980 O.2   170  GLY170     -0.2863
     14  N         -4.5890    8.3130   23.5770 N.3   176  LYS176     -0.1245
     15  CA        -5.6280    8.1440   24.6070 C.3   176  LYS176      0.1561
     16  C         -5.0120    8.2060   25.9980 C.2   176  LYS176      0.2260
     17  O         -4.0150    7.5430   26.2560 O.2   176  LYS176     -0.2867
     18  CB        -6.3210    6.7880   24.4720 C.3   176  LYS176      0.0271
     19  CG        -7.5430    6.8080   23.6250 C.3   176  LYS176      0.0035
     20  CD        -8.0830    5.4100   23.3370 C.3   176  LYS176      0.0206
     21  CE        -8.6940    4.7630   24.5750 C.3   176  LYS176      0.1093
     22  NZ        -9.7550    3.7860   24.1830 N.3   176  LYS176     -0.1314
     23  N         -3.0400  -11.8080   23.8330 N.3   241  TRP241     -0.1241
     24  CA        -3.2970  -10.7860   22.8040 C.3   241  TRP241      0.1605
     25  C         -4.1880  -11.2630   21.6580 C.2   241  TRP241      0.2264
     26  O         -4.1610  -10.6740   20.5830 O.2   241  TRP241     -0.2867
     27  CB        -1.9760  -10.2880   22.2060 C.3   241  TRP241      0.0550
     28  CG        -1.1080   -9.5610   23.1590 C.ar  241  TRP241      0.0003
     29  CD1       -0.9900   -8.2130   23.2930 C.ar  241  TRP241      0.0946
     30  CD2       -0.2170  -10.1450   24.1120 C.ar  241  TRP241      0.0152
     31  NE1       -0.0790   -7.9160   24.2740 N.ar  241  TRP241     -0.2442
     32  CE2        0.4090   -9.0870   24.7950 C.ar  241  TRP241      0.0810
     33  CE3        0.1030  -11.4660   24.4650 C.ar  241  TRP241      0.0012
     34  CZ2        1.3480   -9.3040   25.8130 C.ar  241  TRP241      0.0191
     35  CZ3        1.0380  -11.6810   25.4730 C.ar  241  TRP241      0.0001
     36  CH2        1.6460  -10.6060   26.1330 C.ar  241  TRP241      0.0015
     37  N         -7.6050  -11.5370   21.6290 N.3   243  ASN243     -0.1240
     38  CA        -9.0040  -11.1150   21.7940 C.3   243  ASN243      0.1653
     39  C         -9.9000  -12.1610   22.4760 C.2   243  ASN243      0.2266
     40  O        -11.1210  -12.0560   22.4050 O.2   243  ASN243     -0.2867
     41  CB        -9.6140  -10.7050   20.4400 C.3   243  ASN243      0.1155
     42  CG       -10.7820   -9.7770   20.6640 C.2   243  ASN243      0.2627
     43  OD1      -11.0250   -9.2310   21.7450 O.2   243  ASN243     -0.2716
     44  ND2      -11.5090   -9.5570   19.5810 N.am  243  ASN243     -0.0877
     45  N        -10.4360  -13.5360   25.9910 N.3   245  TYR245     -0.1241
     46  CA       -10.1490  -13.3530   27.4200 C.3   245  TYR245      0.1605
     47  C        -11.2750  -13.8860   28.3180 C.2   245  TYR245      0.2264
     48  O        -11.5900  -13.3050   29.3630 O.2   245  TYR245     -0.2867
     49  CB        -9.8950  -11.8690   27.7000 C.3   245  TYR245      0.0534
     50  CG        -9.0150  -11.2070   26.6530 C.ar  245  TYR245     -0.0201
     51  CD1       -7.6780  -11.5770   26.5030 C.ar  245  TYR245     -0.0009
     52  CD2       -9.5190  -10.2170   25.8100 C.ar  245  TYR245     -0.0009
     53  CE1       -6.8680  -10.9820   25.5460 C.ar  245  TYR245      0.0417
     54  CE2       -8.7130   -9.6150   24.8500 C.ar  245  TYR245      0.0417
     55  CZ        -7.3900  -10.0050   24.7220 C.ar  245  TYR245      0.1957
     56  OH        -6.5840   -9.4150   23.7730 O.3   245  TYR245     -0.2866
     57  N         -8.3770   -4.6040   28.9000 N.3   252  MET252     -0.1245
     58  CA        -9.0130   -3.2910   28.7050 C.3   252  MET252      0.1570
     59  C        -10.0340   -2.9240   29.7890 C.2   252  MET252      0.2261
     60  O        -10.5440   -1.7920   29.8270 O.2   252  MET252     -0.2867
     61  CB        -9.6950   -3.2460   27.3270 C.3   252  MET252      0.0387
     62  CG        -8.7260   -3.1290   26.1440 C.3   252  MET252      0.0595
     63  SD        -7.6550   -4.5650   25.8270 S.3   252  MET252     -0.1393
     64  CE        -8.8400   -5.7520   25.1770 C.3   252  MET252      0.0692
     65  N         -1.8090   -7.0900   29.4080 N.3   276  GLN276     -0.1231
     66  CA        -1.1310   -6.6440   28.1910 C.3   276  GLN276      0.1698
     67  C         -0.1210   -5.6250   28.6410 C.2   276  GLN276      0.2592
     68  O         -0.0500   -5.3050   29.8430 O.2   276  GLN276     -0.2718
     69  CB        -2.1250   -6.1180   27.1380 C.3   276  GLN276      0.0381
     70  CG        -2.7120   -7.2530   26.3260 C.3   276  GLN276      0.0905
     71  CD        -3.5690   -6.8200   25.1250 C.2   276  GLN276      0.2608
     72  OE1       -3.6280   -5.6450   24.7710 O.2   276  GLN276     -0.2717
     73  NE2       -4.2320   -7.7900   24.4960 N.am  276  GLN276     -0.0878
     74  N          0.6920   -5.1150   27.7280 N.am  277  CYS277     -0.1956
     75  CA         1.8460   -4.3740   28.1860 C.3   277  CYS277      0.1843
     76  C          1.4950   -3.3450   29.2610 C.2   277  CYS277      0.2625
     77  O          2.1950   -3.2550   30.2860 O.2   277  CYS277     -0.2714
     78  CB         2.5680   -3.6970   27.0200 C.3   277  CYS277      0.0997
     79  SG         1.5750   -2.4700   26.2040 S.3   277  CYS277     -0.0797
     80  N          0.4480   -2.5420   29.0410 N.am  278  TRP278     -0.1974
     81  CA         0.1780   -1.4290   29.9750 C.3   278  TRP278      0.1640
     82  C         -0.3700   -1.9480   31.3120 C.2   278  TRP278      0.2290
     83  O         -0.3090   -1.2340   32.3060 O.2   278  TRP278     -0.2864
     84  CB        -0.8000   -0.3940   29.4000 C.3   278  TRP278      0.0576
     85  CG        -2.2140   -0.8540   29.4340 C.ar  278  TRP278      0.0006
     86  CD1       -3.1430   -0.6250   30.4220 C.ar  278  TRP278      0.0946
     87  CD2       -2.8540   -1.6820   28.4680 C.ar  278  TRP278      0.0152
     88  NE1       -4.3350   -1.2470   30.0960 N.ar  278  TRP278     -0.2442
     89  CE2       -4.1730   -1.9040   28.9090 C.ar  278  TRP278      0.0810
     90  CE3       -2.4450   -2.2420   27.2570 C.ar  278  TRP278      0.0012
     91  CZ2       -5.0630   -2.6590   28.1910 C.ar  278  TRP278      0.0191
     92  CZ3       -3.3090   -3.0020   26.5770 C.ar  278  TRP278      0.0001
     93  CH2       -4.6120   -3.2090   27.0290 C.ar  278  TRP278      0.0015
     94  N          4.5670    3.2880   17.9930 N.3   302  ASN302     -0.1225
     95  CA         5.1770    2.9100   16.7060 C.3   302  ASN302      0.1785
     96  C          4.1620    3.0260   15.5730 C.2   302  ASN302      0.2598
     97  O          2.9620    2.8840   15.7970 O.2   302  ASN302     -0.2718
     98  CB         5.7310    1.4830   16.7650 C.3   302  ASN302      0.1169
     99  CG         6.6250    1.2490   17.9810 C.2   302  ASN302      0.2627
    100  OD1        7.6040    1.9600   18.1930 O.2   302  ASN302     -0.2716
    101  ND2        6.3020    0.2320   18.7570 N.am  302  ASN302     -0.0877
    102  N          4.6400    3.2840   14.3590 N.am  303  SER303     -0.1938
    103  CA         3.7430    3.5600   13.2350 C.3   303  SER303      0.2055
    104  C          4.1770    2.8690   11.9450 C.2   303  SER303      0.2642
    105  O          5.3670    2.8550   11.6220 O.2   303  SER303     -0.2714
    106  CB         3.6920    5.0630   13.0000 C.3   303  SER303      0.2130
    107  OG         4.9670    5.5320   12.5750 O.3   303  SER303     -0.2179
    108  N          3.1900    2.3150   11.2270 N.am  304  ALA304     -0.1977
    109  CA         3.3790    1.6890    9.9210 C.3   304  ALA304      0.1597
    110  C          2.9610    2.6420    8.8120 C.2   304  ALA304      0.2287
    111  O          2.3020    3.6580    9.0470 O.2   304  ALA304     -0.2864
    112  CB         2.5580    0.4160    9.8130 C.3   304  ALA304      0.0319
    113  N          7.6850   -6.5240    5.5410 N.3   310  LEU310     -0.1231
    114  CA         7.9640   -6.2390    6.9540 C.3   310  LEU310      0.1693
    115  C          6.6840   -6.2720    7.7750 C.2   310  LEU310      0.2591
    116  O          6.6530   -6.8550    8.8610 O.2   310  LEU310     -0.2718
    117  CB         8.6390   -4.8660    7.1320 C.3   310  LEU310      0.0284
    118  CG         9.8360   -4.7490    8.0800 C.3   310  LEU310      0.0019
    119  CD1       10.0300   -3.3000    8.5130 C.3   310  LEU310      0.0001
    120  CD2        9.6820   -5.6290    9.3040 C.3   310  LEU310      0.0001
    121  N          5.6390   -5.6300    7.2590 N.am  311  ILE311     -0.1980
    122  CA         4.3640   -5.5520    7.9650 C.3   311  ILE311      0.1595
    123  C          3.5970   -6.8770    7.8700 C.2   311  ILE311      0.2287
    124  O          2.8070   -7.1890    8.7550 O.2   311  ILE311     -0.2864
    125  CB         3.4920   -4.3390    7.4920 C.3   311  ILE311      0.0276
    126  CG1        4.1750   -3.0050    7.8400 C.3   311  ILE311      0.0022
    127  CG2        2.1180   -4.3630    8.1580 C.3   311  ILE311      0.0022
    128  CD1        4.7790   -2.2810    6.6580 C.3   311  ILE311      0.0001
    129  N          5.0740   -9.3900   10.5840 N.3   314  PHE314     -0.1227
    130  CA         4.5360   -9.1010   11.9070 C.3   314  PHE314      0.1736
    131  C          3.0530   -9.4190   12.0030 C.2   314  PHE314      0.2595
    132  O          2.6240  -10.0770   12.9430 O.2   314  PHE314     -0.2718
    133  CB         4.7790   -7.6420   12.2600 C.3   314  PHE314      0.0547
    134  CG         6.1940   -7.3470   12.6200 C.ar  314  PHE314     -0.0202
    135  CD1        6.9250   -6.4190   11.9140 C.ar  314  PHE314     -0.0042
    136  CD2        6.8010   -8.0090   13.6730 C.ar  314  PHE314     -0.0042
    137  CE1        8.2290   -6.1480   12.2480 C.ar  314  PHE314     -0.0003
    138  CE2        8.1110   -7.7420   14.0140 C.ar  314  PHE314     -0.0003
    139  CZ         8.8250   -6.8080   13.2880 C.ar  314  PHE314     -0.0000
    140  N          2.2710   -8.9620   11.0290 N.am  315  ARG315     -0.1980
    141  CA         0.8240   -9.1750   11.0540 C.3   315  ARG315      0.1597
    142  C          0.5020  -10.6570   11.2020 C.2   315  ARG315      0.2287
    143  O         -0.1620  -11.0670   12.1590 O.2   315  ARG315     -0.2864
    144  CB         0.1580   -8.6210    9.7900 C.3   315  ARG315      0.0334
    145  CG        -1.4770   -8.6510    9.9760 C.3   315  ARG315      0.0492
    146  CD        -2.1640  -10.0030    9.6380 C.3   315  ARG315      0.2205
    147  NE        -3.3390   -9.8470    8.7680 N.pl3 315  ARG315     -0.0865
    148  CZ        -4.0590  -10.8530    8.2640 C.cat 315  ARG315      0.5346
    149  NH1       -3.7540  -12.1190    8.5390 N.pl3 315  ARG315      0.1354
    150  NH2       -5.1020  -10.5930    7.4830 N.pl3 315  ARG315      0.1354
    151  N          7.2700   -8.5080   19.2480 N.3   319  MET319     -0.1230
    152  CA         6.7630   -7.8360   18.0870 C.3   319  MET319      0.1702
    153  C          7.1130   -6.3640   18.2170 C.2   319  MET319      0.2592
    154  O          7.7670   -5.9370   19.1790 O.2   319  MET319     -0.2718
    155  CB         5.2500   -7.9710   18.0540 C.3   319  MET319      0.0401
    156  CG         4.6450   -7.6380   16.7070 C.3   319  MET319      0.0596
    157  SD         3.3860   -8.8220   16.3170 S.3   319  MET319     -0.1393
    158  CE         4.2680  -10.3850   16.4270 C.3   319  MET319      0.0692
    159  N          6.6910   -5.6020   17.2230 N.am  320  ILE320     -0.1966
    160  CA         6.6690   -4.1660   17.3050 C.3   320  ILE320      0.1727
    161  C          5.1810   -3.8120   17.2280 C.2   320  ILE320      0.2616
    162  O          4.5210   -4.1340   16.2490 O.2   320  ILE320     -0.2715
    163  CB         7.4680   -3.5410   16.1390 C.3   320  ILE320      0.0290
    164  CG1        8.8610   -4.1700   16.0220 C.3   320  ILE320      0.0022
    165  CG2        7.5940   -2.0300   16.3310 C.3   320  ILE320      0.0023
    166  CD1        9.6180   -3.7240   14.7830 C.3   320  ILE320      0.0001
    167  N          4.6640   -3.1870   18.2850 N.am  321  TRP321     -0.1960
    168  CA         3.2220   -2.9250   18.4540 C.3   321  TRP321      0.1771
    169  C          2.8490   -1.4800   18.1300 C.2   321  TRP321      0.2620
    170  O          3.7040   -0.6090   18.1630 O.2   321  TRP321     -0.2715
    171  CB         2.8540   -3.0800   19.9280 C.3   321  TRP321      0.0590
    172  CG         3.3320   -4.2900   20.6060 C.ar  321  TRP321      0.0006
    173  CD1        4.4440   -4.4150   21.4180 C.ar  321  TRP321      0.0946
    174  CD2        2.6820   -5.5490   20.6060 C.ar  321  TRP321      0.0152
    175  NE1        4.5170   -5.7080   21.9040 N.ar  321  TRP321     -0.2442
    176  CE2        3.4440   -6.4190   21.4210 C.ar  321  TRP321      0.0810
    177  CE3        1.5150   -6.0280   20.0130 C.ar  321  TRP321      0.0012
    178  CZ2        3.0830   -7.7450   21.6210 C.ar  321  TRP321      0.0191
    179  CZ3        1.1580   -7.3400   20.2220 C.ar  321  TRP321      0.0001
    180  CH2        1.9380   -8.1880   21.0080 C.ar  321  TRP321      0.0015
    181  N          1.5540   -1.2200   17.9560 N.am  322  ASN322     -0.1958
    182  CA         1.0530    0.1600   17.8130 C.3   322  ASN322      0.1819
    183  C          1.4900    1.0700   18.9830 C.2   322  ASN322      0.2621
    184  O          1.9640    2.1960   18.7870 O.2   322  ASN322     -0.2715
    185  CB        -0.4780    0.1910   17.5130 C.3   322  ASN322      0.1195
    186  CG        -1.3870   -0.1510   18.7250 C.2   322  ASN322      0.2630
    187  OD1       -1.1230   -1.0730   19.5060 O.2   322  ASN322     -0.2716
    188  ND2       -2.4890    0.6040   18.8590 N.am  322  ASN322     -0.0877
    189  N          1.3880    0.5480   20.1950 N.am  323  PHE323     -0.1960
    190  CA         2.0870    1.1600   21.3470 C.3   323  PHE323      0.1771
    191  C          2.6230    0.1000   22.2980 C.2   323  PHE323      0.2619
    192  O          2.1670   -1.0270   22.3110 O.2   323  PHE323     -0.2715
    193  CB         1.2050    2.1640   22.1180 C.3   323  PHE323      0.0574
    194  CG         0.0860    1.5170   22.8800 C.ar  323  PHE323     -0.0200
    195  CD1        0.2610    1.1490   24.1940 C.ar  323  PHE323     -0.0042
    196  CD2       -1.1340    1.2880   22.2830 C.ar  323  PHE323     -0.0042
    197  CE1       -0.7520    0.5320   24.9010 C.ar  323  PHE323     -0.0003
    198  CE2       -2.1490    0.6820   22.9770 C.ar  323  PHE323     -0.0003
    199  CZ        -1.9560    0.3060   24.3080 C.ar  323  PHE323     -0.0000
    200  N          3.6040    0.4910   23.1000 N.am  324  HIS324     -0.1973
    201  CA         4.1460   -0.3890   24.1190 C.3   324  HIS324      0.1656
    202  C          4.4780    0.4130   25.3800 C.2   324  HIS324      0.2291
    203  O          4.9260    1.5470   25.2860 O.2   324  HIS324     -0.2864
    204  CB         5.3660   -1.1350   23.6000 C.3   324  HIS324      0.0771
    205  CG         5.9860   -2.0340   24.6120 C.ar  324  HIS324      0.0820
    206  ND1        5.2860   -3.0540   25.2230 N.ar  324  HIS324     -0.2267
    207  CD2        7.2310   -2.0580   25.1380 C.ar  324  HIS324      0.1154
    208  CE1        6.0790   -3.6640   26.0870 C.ar  324  HIS324      0.1986
    209  NE2        7.2660   -3.0830   26.0500 N.ar  324  HIS324     -0.2212
    210  N          8.5430    2.3320    5.9630 N.3   401  SER401     -0.1202
    211  CA         7.3240    1.5490    6.2180 C.3   401  SER401      0.2020
    212  C          7.0740    1.3300    7.7260 C.2   401  SER401      0.2618
    213  O          5.9410    1.0790    8.1380 O.2   401  SER401     -0.2717
    214  CB         7.3840    0.1770    5.5420 C.3   401  SER401      0.2103
    215  OG         7.1050    0.2820    4.1630 O.3   401  SER401     -0.2182
    216  N          8.1350    1.3750    8.5250 N.am  402  LEU402     -0.1979
    217  CA         8.0140    1.2050    9.9700 C.3   402  LEU402      0.1596
    218  C          8.8250    2.2810   10.6650 C.2   402  LEU402      0.2287
    219  O         10.0210    2.4060   10.4160 O.2   402  LEU402     -0.2864
    220  CB         8.4960   -0.1960   10.3700 C.3   402  LEU402      0.0297
    221  CG         8.6770   -0.5860   11.8440 C.3   402  LEU402      0.0022
    222  CD1       10.1170   -0.3430   12.3190 C.3   402  LEU402      0.0001
    223  CD2        7.6720    0.1240   12.7640 C.3   402  LEU402      0.0001
@<TRIPOS>BOND
     1   215   214    1
     2   113   114    1
     3   214   211    1
     4   210   211    1
     5   211   212    1
     6   128   126    1
     7   114   117    1
     8   114   115    1
     9   117   118    1
    10   121   115   am
    11   121   122    1
    12   150   148    1
    13   125   126    1
    14   125   122    1
    15   125   127    1
    16   212   213    2
    17   212   216   am
    18   115   116    2
    19   123   122    1
    20   123   124    2
    21   118   119    1
    22   118   120    1
    23   148   149    1
    24   148   147    2
    25   216   217    1
    26   147   146    1
    27   110   111    2
    28   110   109    1
    29   146   145    1
    30   144   145    1
    31   144   141    1
    32   112   109    1
    33   109   108    1
    34   217   220    1
    35   217   218    1
    36   220   221    1
    37   219   218    2
    38   129   130    1
    39   140   141    1
    40   140   131   am
    41   141   142    1
    42   142   143    2
    43   108   104   am
    44   105   104    2
    45   221   222    1
    46   221   223    1
    47   130   131    1
    48   130   133    1
    49   135   137   ar
    50   135   134   ar
    51   104   103    1
    52   131   132    2
    53   137   139   ar
    54   133   134    1
    55   107   106    1
    56   134   136   ar
    57   106   103    1
    58   103   102    1
    59   139   138   ar
    60   136   138   ar
    61   102    96   am
    62   166   164    1
    63    96    97    2
    64    96    95    1
    65   164   163    1
    66   163   165    1
    67   163   160    1
    68   162   161    2
    69   157   158    1
    70   157   156    1
    71    95    98    1
    72    95    94    1
    73   156   155    1
    74    98    99    1
    75   159   160    1
    76   159   153   am
    77   161   160    1
    78   161   167   am
    79   185   182    1
    80   185   186    1
    81   182   181    1
    82   182   183    1
    83   181   169   am
    84    99   100    2
    85    99   101   am
    86   155   152    1
    87   152   153    1
    88   152   151    1
    89   169   170    2
    90   169   168    1
    91   153   154    2
    92   167   168    1
    93   168   171    1
    94   186   188   am
    95   186   187    2
    96   184   183    2
    97   183   189   am
    98    44    42   am
    99   171   172    1
   100   177   179   ar
   101   177   174   ar
   102    13    12    2
   103   189   190    1
   104   179   180   ar
   105    12    11    1
   106    41    42    1
   107    41    38    1
   108    26    25    2
   109   174   172   ar
   110   174   176   ar
   111   172   173   ar
   112    42    43    2
   113   180   178   ar
   114    11    10    1
   115   190   193    1
   116   190   191    1
   117   173   175   ar
   118   176   178   ar
   119   176   175   ar
   120    37    38    1
   121    25    24    1
   122    38    39    1
   123   193   194    1
   124    27    24    1
   125    27    28    1
   126   196   194   ar
   127   196   198   ar
   128   191   192    2
   129   191   200   am
   130    40    39    2
   131    10     3   am
   132    24    23    1
   133   194   195   ar
   134   198   199   ar
   135   200   201    1
   136    28    29   ar
   137    28    30   ar
   138     4     3    2
   139    29    31   ar
   140    20    19    1
   141    20    21    1
   142     3     2    1
   143    14    15    1
   144   204   201    1
   145   204   205    1
   146    19    18    1
   147    56    55    1
   148    30    33   ar
   149    30    32   ar
   150   201   202    1
   151    22    21    1
   152   195   197   ar
   153    31    32   ar
   154   199   197   ar
   155    33    35   ar
   156    18    15    1
   157    73    71   am
   158    15    16    1
   159   205   207   ar
   160   205   206   ar
   161    55    54   ar
   162    55    53   ar
   163     2     5    1
   164     2     1    1
   165    72    71    2
   166    32    34   ar
   167    54    52   ar
   168    71    70    1
   169   207   209   ar
   170    64    63    1
   171   206   208   ar
   172     5     6    1
   173   203   202    2
   174    35    36   ar
   175    53    51   ar
   176    52    50   ar
   177    34    36   ar
   178    63    62    1
   179    45    46    1
   180    16    17    2
   181   209   208   ar
   182    62    61    1
   183    79    78    1
   184    70    69    1
   185    51    50   ar
   186    92    93   ar
   187    92    90   ar
   188     9     7   am
   189     6     7    1
   190    50    49    1
   191    78    75    1
   192    93    91   ar
   193     7     8    2
   194    69    66    1
   195    90    87   ar
   196    61    58    1
   197    46    49    1
   198    46    47    1
   199    74    75    1
   200    74    67   am
   201    75    76    1
   202    66    67    1
   203    66    65    1
   204    91    89   ar
   205    47    48    2
   206    87    89   ar
   207    87    85   ar
   208    67    68    2
   209    58    57    1
   210    58    59    1
   211    89    88   ar
   212    80    76   am
   213    80    81    1
   214    76    77    2
   215    84    85    1
   216    84    81    1
   217    85    86   ar
   218    59    60    2
   219    81    82    1
   220    88    86   ar
   221    82    83    2
