@<TRIPOS>MOLECULE
tmp/2q4gA00.pdb
 93 92 0 0 0
SMALL
GASTEIGER

@<TRIPOS>ATOM
      1  N         24.3910   61.0430  -11.0820 N.3     2  SER2       -0.1202
      2  CA        23.4200   60.2720  -11.8430 C.3     2  SER2        0.2020
      3  C         24.0670   59.2600  -12.7900 C.2     2  SER2        0.2618
      4  O         25.2850   59.2600  -12.9810 O.2     2  SER2       -0.2717
      5  CB        22.5050   61.2130  -12.6330 C.3     2  SER2        0.2103
      6  OG        23.2480   62.0030  -13.5400 O.3     2  SER2       -0.2182
      7  N         23.2370   58.3880  -13.3580 N.am    3  ARG3       -0.1979
      8  CA        23.6840   57.3610  -14.3070 C.3     3  ARG3        0.1597
      9  C         23.7290   58.0150  -15.6820 C.2     3  ARG3        0.2287
     10  O         22.9980   57.6230  -16.5900 O.2     3  ARG3       -0.2864
     11  CB        22.6990   56.1740  -14.3370 C.3     3  ARG3        0.0334
     12  CG        22.5460   55.3880  -13.0210 C.3     3  ARG3        0.0492
     13  CD        23.7370   54.4580  -12.7140 C.3     3  ARG3        0.2205
     14  NE        23.8050   53.2900  -13.5960 N.pl3   3  ARG3       -0.0865
     15  CZ        24.7230   52.3270  -13.5100 C.cat   3  ARG3        0.5346
     16  NH1       25.6640   52.3750  -12.5790 N.pl3   3  ARG3        0.1354
     17  NH2       24.7040   51.3090  -14.3600 N.pl3   3  ARG3        0.1354
     18  N         28.2920   60.4620  -14.7370 N.3     6  LYS6       -0.1231
     19  CA        29.4280   59.5810  -14.4820 C.3     6  LYS6        0.1693
     20  C         29.9750   59.0440  -15.8100 C.2     6  LYS6        0.2592
     21  O         31.1670   58.7330  -15.9190 O.2     6  LYS6       -0.2718
     22  CB        28.9950   58.4150  -13.5900 C.3     6  LYS6        0.0285
     23  CG        30.1230   57.4680  -13.1990 C.3     6  LYS6        0.0035
     24  CD        29.6210   56.4360  -12.2030 C.3     6  LYS6        0.0206
     25  CE        30.7560   55.5890  -11.6740 C.3     6  LYS6        0.1093
     26  NZ        31.6900   56.4110  -10.8510 N.3     6  LYS6       -0.1314
     27  N         29.0950   58.9210  -16.8090 N.am    7  PHE7       -0.1976
     28  CA        29.5060   58.4460  -18.1360 C.3     7  PHE7        0.1639
     29  C         30.3270   59.5510  -18.7940 C.2     7  PHE7        0.2290
     30  O         31.3420   59.2960  -19.4410 O.2     7  PHE7       -0.2864
     31  CB        28.2910   58.1460  -19.0160 C.3     7  PHE7        0.0560
     32  CG        28.6520   57.7380  -20.4140 C.ar    7  PHE7       -0.0200
     33  CD1       28.9690   56.4190  -20.7040 C.ar    7  PHE7       -0.0042
     34  CD2       28.7100   58.6800  -21.4320 C.ar    7  PHE7       -0.0042
     35  CE1       29.3410   56.0390  -21.9940 C.ar    7  PHE7       -0.0003
     36  CE2       29.0810   58.3150  -22.7280 C.ar    7  PHE7       -0.0003
     37  CZ        29.3990   56.9910  -23.0070 C.ar    7  PHE7       -0.0000
     38  N         33.6990   59.5710  -16.8690 N.3    10  GLN10      -0.1231
     39  CA        34.5740   58.4380  -17.1210 C.3    10  GLN10       0.1698
     40  C         34.8810   58.2310  -18.5990 C.2    10  GLN10       0.2592
     41  O         35.9750   57.7940  -18.9390 O.2    10  GLN10      -0.2718
     42  CB        33.9610   57.1550  -16.5300 C.3    10  GLN10       0.0381
     43  CG        33.7020   57.2250  -15.0110 C.3    10  GLN10       0.0905
     44  CD        33.5430   55.8520  -14.3500 C.2    10  GLN10       0.2608
     45  OE1       32.7840   55.0030  -14.8180 O.2    10  GLN10      -0.2717
     46  NE2       34.2540   55.6400  -13.2420 N.am   10  GLN10      -0.0878
     47  N         33.9470   58.5860  -19.4800 N.am   11  HIS11      -0.1976
     48  CA        34.1630   58.3380  -20.9000 C.3    11  HIS11       0.1656
     49  C         34.0520   59.5010  -21.8910 C.2    11  HIS11       0.2291
     50  O         34.3010   59.3100  -23.0790 O.2    11  HIS11      -0.2864
     51  CB        33.2290   57.1960  -21.3320 C.3    11  HIS11       0.0771
     52  CG        33.2780   56.0080  -20.4150 C.ar   11  HIS11       0.0820
     53  ND1       34.3810   55.1900  -20.3170 N.ar   11  HIS11      -0.2267
     54  CD2       32.3710   55.5330  -19.5230 C.ar   11  HIS11       0.1154
     55  CE1       34.1530   54.2560  -19.4040 C.ar   11  HIS11       0.1986
     56  NE2       32.9410   54.4430  -18.9070 N.ar   11  HIS11      -0.2212
     57  N         41.6110   52.4540  -11.7180 N.3    40  LYS40      -0.1245
     58  CA        40.6590   51.8540  -12.6730 C.3    40  LYS40       0.1561
     59  C         41.5500   51.2380  -13.7600 C.2    40  LYS40       0.2260
     60  O         42.2370   51.9540  -14.4910 O.2    40  LYS40      -0.2867
     61  CB        39.7150   52.9190  -13.2580 C.3    40  LYS40       0.0271
     62  CG        38.5680   52.3320  -14.0840 C.3    40  LYS40       0.0035
     63  CD        37.4280   53.3400  -14.3560 C.3    40  LYS40       0.0206
     64  CE        36.3350   52.6620  -15.1890 C.3    40  LYS40       0.1093
     65  NZ        35.0930   53.4610  -15.2760 N.3    40  LYS40      -0.1314
     66  N         24.6340   54.5180  -20.2150 N.3   117  VAL117     -0.1231
     67  CA        24.8360   54.2430  -18.8010 C.3   117  VAL117      0.1692
     68  C         25.9690   53.2430  -18.5500 C.2   117  VAL117      0.2592
     69  O         26.0880   52.6880  -17.4570 O.2   117  VAL117     -0.2718
     70  CB        23.5360   53.7190  -18.1700 C.3   117  VAL117      0.0266
     71  CG1       22.4730   54.8280  -18.1650 C.3   117  VAL117      0.0020
     72  CG2       23.0300   52.5160  -18.9570 C.3   117  VAL117      0.0020
     73  N         26.8110   53.0320  -19.5590 N.am  118  HIS118     -0.1962
     74  CA        27.9170   52.0850  -19.4540 C.3   118  HIS118      0.1787
     75  C         28.6260   52.0150  -20.7850 C.2   118  HIS118      0.2620
     76  O         27.9780   51.9200  -21.8470 O.2   118  HIS118     -0.2715
     77  CB        27.4040   50.6780  -19.1110 C.3   118  HIS118      0.0785
     78  CG        28.4630   49.6140  -19.1550 C.ar  118  HIS118      0.0821
     79  ND1       29.2870   49.3350  -18.0870 N.ar  118  HIS118     -0.2267
     80  CD2       28.8390   48.7710  -20.1460 C.ar  118  HIS118      0.1154
     81  CE1       30.1250   48.3680  -18.4160 C.ar  118  HIS118      0.1986
     82  NE2       29.8760   48.0080  -19.6610 N.ar  118  HIS118     -0.2212
     83  N         29.9500   52.0660  -20.7360 N.am  119  PHE119     -0.1974
     84  CA        30.7460   51.9650  -21.9490 C.3   119  PHE119      0.1639
     85  C         31.1100   50.4840  -22.0050 C.2   119  PHE119      0.2290
     86  O         31.8560   49.9840  -21.1580 O.2   119  PHE119     -0.2864
     87  CB        32.0020   52.8360  -21.8370 C.3   119  PHE119      0.0560
     88  CG        32.7270   53.0130  -23.1360 C.ar  119  PHE119     -0.0200
     89  CD1       32.5470   54.1690  -23.8990 C.ar  119  PHE119     -0.0042
     90  CD2       33.5620   52.0060  -23.6250 C.ar  119  PHE119     -0.0042
     91  CE1       33.1850   54.3230  -25.1360 C.ar  119  PHE119     -0.0003
     92  CE2       34.2020   52.1500  -24.8600 C.ar  119  PHE119     -0.0003
     93  CZ        34.0080   53.3170  -25.6140 C.ar  119  PHE119     -0.0000
@<TRIPOS>BOND
     1    93    91   ar
     2    93    92   ar
     3    91    89   ar
     4    92    90   ar
     5    89    88   ar
     6    90    88   ar
     7    88    87    1
     8    50    49    2
     9    37    36   ar
    10    37    35   ar
    11    36    34   ar
    12    85    84    1
    13    85    86    2
    14    35    33   ar
    15    84    87    1
    16    84    83    1
    17    49    48    1
    18    76    75    2
    19    34    32   ar
    20    51    48    1
    21    51    52    1
    22    48    47    1
    23    75    83   am
    24    75    74    1
    25    33    32   ar
    26    52    53   ar
    27    52    54   ar
    28    32    31    1
    29    53    55   ar
    30    66    67    1
    31    80    82   ar
    32    80    78   ar
    33    82    81   ar
    34    73    74    1
    35    73    68   am
    36    54    56   ar
    37    47    40   am
    38    74    77    1
    39    30    29    2
    40    55    56   ar
    41    78    77    1
    42    78    79   ar
    43    31    28    1
    44    72    70    1
    45    41    40    2
    46    67    68    1
    47    67    70    1
    48    29    28    1
    49    40    39    1
    50    68    69    2
    51    81    79   ar
    52    70    71    1
    53    28    27    1
    54    39    38    1
    55    39    42    1
    56    27    20   am
    57    10     9    2
    58    42    43    1
    59    21    20    2
    60    20    19    1
    61     9     8    1
    62    65    64    1
    63    64    63    1
    64    43    44    1
    65    45    44    2
    66    18    19    1
    67    60    59    2
    68    19    22    1
    69    17    15    1
    70    63    62    1
    71    44    46   am
    72    11     8    1
    73    11    12    1
    74     8     7    1
    75    62    61    1
    76    59    58    1
    77    14    15    2
    78    14    13    1
    79    22    23    1
    80     6     5    1
    81    15    16    1
    82     7     3   am
    83    61    58    1
    84    23    24    1
    85    12    13    1
    86     4     3    2
    87     3     2    1
    88    58    57    1
    89     5     2    1
    90    24    25    1
    91     2     1    1
    92    25    26    1
