@<TRIPOS>MOLECULE
tmp/2q4hA00.pdb
 156 153 0 0 0
SMALL
GASTEIGER

@<TRIPOS>ATOM
      1  N         41.3370   -0.1700  -34.3090 N.3    32  PRO32      -0.2102
      2  CA        42.4860   -0.7950  -33.6650 C.3    32  PRO32       0.1504
      3  C         42.4720   -2.3100  -33.7190 C.2    32  PRO32       0.2575
      4  O         43.5380   -2.9360  -33.6000 O.2    32  PRO32      -0.2718
      5  CB        42.4090   -0.2640  -32.2340 C.3    32  PRO32       0.0282
      6  CG        41.8160    1.1220  -32.4520 C.3    32  PRO32       0.0208
      7  CD        40.6700    0.7690  -33.3960 C.3    32  PRO32       0.0893
      8  N         41.2890   -2.9030  -33.9100 N.am   33  PHE33      -0.1977
      9  CA        41.2020   -4.3710  -33.9730 C.3    33  PHE33       0.1639
     10  C         41.6200   -4.9250  -35.3490 C.2    33  PHE33       0.2290
     11  O         41.8920   -6.1380  -35.4840 O.2    33  PHE33      -0.2864
     12  CB        39.7630   -4.8860  -33.6810 C.3    33  PHE33       0.0560
     13  CG        39.3070   -4.7470  -32.2600 C.ar   33  PHE33      -0.0200
     14  CD1       40.1730   -4.2950  -31.2510 C.ar   33  PHE33      -0.0042
     15  CD2       37.9640   -5.0480  -31.9210 C.ar   33  PHE33      -0.0042
     16  CE1       39.7180   -4.1360  -29.9370 C.ar   33  PHE33      -0.0003
     17  CE2       37.5090   -4.8940  -30.6170 C.ar   33  PHE33      -0.0003
     18  CZ        38.3830   -4.4310  -29.6080 C.ar   33  PHE33      -0.0000
     19  N         47.8230   -0.7440  -31.2840 N.3    40  GLU40      -0.1231
     20  CA        46.7430    0.0530  -30.6930 C.3    40  GLU40       0.1699
     21  C         45.8110   -0.7410  -29.7590 C.2    40  GLU40       0.2592
     22  O         44.8350   -0.1930  -29.2230 O.2    40  GLU40      -0.2718
     23  CB        45.9120    0.6960  -31.7960 C.3    40  GLU40       0.0402
     24  CG        46.6880    1.7860  -32.5680 C.3    40  GLU40       0.1161
     25  CD        45.9270    2.2690  -33.7920 C.2    40  GLU40       0.3649
     26  OE1       44.9200    3.0100  -33.6400 O.co2  40  GLU40      -0.2457
     27  OE2       46.3420    1.8960  -34.9050 O.co2  40  GLU40      -0.2457
     28  N         46.1190   -2.0180  -29.5550 N.am   41  CYS41      -0.1956
     29  CA        45.3080   -2.8740  -28.6790 C.3    41  CYS41       0.1843
     30  C         45.9900   -3.1950  -27.3410 C.2    41  CYS41       0.2625
     31  O         47.2180   -3.2470  -27.2680 O.2    41  CYS41      -0.2714
     32  CB        45.0150   -4.2010  -29.3990 C.3    41  CYS41       0.0997
     33  SG        44.0800   -4.0220  -30.9480 S.3    41  CYS41      -0.0797
     34  N         45.1870   -3.4110  -26.2950 N.am   42  ALA42      -0.1977
     35  CA        45.6890   -3.8230  -24.9680 C.3    42  ALA42       0.1597
     36  C         46.4770   -5.1160  -25.1970 C.2    42  ALA42       0.2287
     37  O         46.3690   -5.7200  -26.2810 O.2    42  ALA42      -0.2864
     38  CB        44.4940   -4.0790  -23.9970 C.3    42  ALA42       0.0319
     39  N         42.9410  -11.0270  -26.9340 N.3    60  ILE60      -0.1231
     40  CA        43.6260   -9.9320  -26.2700 C.3    60  ILE60       0.1692
     41  C         42.9260   -9.4850  -24.9920 C.2    60  ILE60       0.2592
     42  O         41.7580   -9.8230  -24.7230 O.2    60  ILE60      -0.2718
     43  CB        43.7400   -8.7070  -27.1950 C.3    60  ILE60       0.0266
     44  CG1       42.3720   -8.0070  -27.3220 C.3    60  ILE60       0.0019
     45  CG2       44.2390   -9.1590  -28.5800 C.3    60  ILE60       0.0020
     46  CD1       42.4390   -6.6770  -28.0220 C.3    60  ILE60       0.0001
     47  N         43.6490   -8.7240  -24.1900 N.am   61  GLU61      -0.1966
     48  CA        43.0860   -8.2270  -22.9570 C.3    61  GLU61       0.1733
     49  C         42.2300   -7.0060  -23.2690 C.2    61  GLU61       0.2616
     50  O         42.5140   -6.2760  -24.2320 O.2    61  GLU61      -0.2715
     51  CB        44.2210   -7.8920  -21.9660 C.3    61  GLU61       0.0429
     52  CG        44.9710   -9.1470  -21.4680 C.3    61  GLU61       0.1163
     53  CD        45.9900   -8.8540  -20.3770 C.2    61  GLU61       0.3649
     54  OE1       46.4350   -9.8080  -19.7020 O.co2  61  GLU61      -0.2457
     55  OE2       46.3640   -7.6720  -20.1920 O.co2  61  GLU61      -0.2457
     56  N         41.1690   -6.8040  -22.4860 N.am   62  ASN62      -0.1958
     57  CA        40.2970   -5.6460  -22.6980 C.3    62  ASN62       0.1819
     58  C         41.0540   -4.4190  -22.2060 C.2    62  ASN62       0.2621
     59  O         41.5390   -4.4050  -21.0680 O.2    62  ASN62      -0.2715
     60  CB        38.9830   -5.7660  -21.8970 C.3    62  ASN62       0.1195
     61  CG        37.8990   -4.8330  -22.4270 C.2    62  ASN62       0.2630
     62  OD1       38.1060   -3.6180  -22.5080 O.2    62  ASN62      -0.2716
     63  ND2       36.7340   -5.4010  -22.8000 N.am   62  ASN62      -0.0877
     64  N         41.1860   -3.4170  -23.0680 N.am   63  LEU63      -0.1963
     65  CA        41.8640   -2.1670  -22.7060 C.3    63  LEU63       0.1728
     66  C         41.1330   -1.4260  -21.5660 C.2    63  LEU63       0.2616
     67  O         41.7610   -0.7070  -20.7830 O.2    63  LEU63      -0.2715
     68  CB        41.9720   -1.2440  -23.9320 C.3    63  LEU63       0.0311
     69  CG        42.6800    0.1200  -23.6970 C.3    63  LEU63       0.0022
     70  CD1       44.1050   -0.1090  -23.1630 C.3    63  LEU63       0.0001
     71  CD2       42.6920    0.9130  -25.0120 C.3    63  LEU63       0.0001
     72  N         39.8160   -1.6070  -21.4620 N.am   64  TYR64      -0.1974
     73  CA        39.0240   -0.9650  -20.4030 C.3    64  TYR64       0.1639
     74  C         38.2950   -2.1010  -19.6710 C.2    64  TYR64       0.2290
     75  O         37.0630   -2.2050  -19.6860 O.2    64  TYR64      -0.2864
     76  CB        38.0140    0.0160  -21.0050 C.3    64  TYR64       0.0560
     77  CG        38.6420    0.9840  -22.0070 C.ar   64  TYR64      -0.0198
     78  CD1       38.8080    0.6160  -23.3430 C.ar   64  TYR64      -0.0009
     79  CD2       39.0800    2.2570  -21.6100 C.ar   64  TYR64      -0.0009
     80  CE1       39.3900    1.4810  -24.2780 C.ar   64  TYR64       0.0417
     81  CE2       39.6710    3.1400  -22.5280 C.ar   64  TYR64       0.0417
     82  CZ        39.8260    2.7510  -23.8640 C.ar   64  TYR64       0.1957
     83  OH        40.4290    3.5980  -24.7870 O.3    64  TYR64      -0.2866
     84  N         38.8660   -9.6910  -17.8540 N.3    84  HIS84      -0.1241
     85  CA        37.8650   -9.2280  -18.8170 C.3    84  HIS84       0.1621
     86  C         38.6850   -9.1490  -20.1020 C.2    84  HIS84       0.2264
     87  O         39.4660   -8.2000  -20.2990 O.2    84  HIS84      -0.2867
     88  CB        37.3090   -7.8480  -18.4050 C.3    84  HIS84       0.0745
     89  CG        36.2210   -7.3400  -19.3070 C.ar   84  HIS84       0.0817
     90  ND1       35.5600   -6.1450  -19.0970 N.ar   84  HIS84      -0.2268
     91  CD2       35.7080   -7.8560  -20.4490 C.ar   84  HIS84       0.1154
     92  CE1       34.6920   -5.9440  -20.0710 C.ar   84  HIS84       0.1986
     93  NE2       34.7660   -6.9700  -20.9080 N.ar   84  HIS84      -0.2212
     94  N         39.1280  -10.0190  -24.5960 N.3    86  VAL86      -0.1245
     95  CA        38.4650   -9.9030  -25.8980 C.3    86  VAL86       0.1561
     96  C         39.0600  -10.9210  -26.8750 C.2    86  VAL86       0.2260
     97  O         40.2960  -11.0780  -26.9820 O.2    86  VAL86      -0.2867
     98  CB        38.6500   -8.4520  -26.4690 C.3    86  VAL86       0.0252
     99  CG1       37.9020   -8.2870  -27.8130 C.3    86  VAL86       0.0019
    100  CG2       38.1800   -7.4270  -25.4330 C.3    86  VAL86       0.0019
    101  N         28.3380   -9.4950  -27.9370 N.3   133  ASN133     -0.1240
    102  CA        27.3990   -8.3640  -28.0610 C.3   133  ASN133      0.1653
    103  C         27.5410   -7.7730  -29.4620 C.2   133  ASN133      0.2266
    104  O         28.5410   -7.0800  -29.7170 O.2   133  ASN133     -0.2867
    105  CB        27.7260   -7.1900  -27.0930 C.3   133  ASN133      0.1155
    106  CG        28.0850   -7.6370  -25.6520 C.2   133  ASN133      0.2627
    107  OD1       27.2840   -8.2610  -24.9440 O.2   133  ASN133     -0.2716
    108  ND2       29.2950   -7.2840  -25.2150 N.am  133  ASN133     -0.0877
    109  N         24.7580   -3.4950  -27.1150 N.3   139  GLY139     -0.1210
    110  CA        26.0280   -3.2050  -26.4920 C.3   139  GLY139      0.1956
    111  C         27.2890   -3.3210  -27.3190 C.2   139  GLY139      0.2612
    112  O         28.3480   -3.5070  -26.7340 O.2   139  GLY139     -0.2717
    113  N         27.2390   -3.2280  -28.6450 N.am  140  ALA140     -0.1965
    114  CA        28.5020   -3.3250  -29.3690 C.3   140  ALA140      0.1728
    115  C         29.1490   -1.9570  -29.4850 C.2   140  ALA140      0.2617
    116  O         28.6340   -1.0580  -30.1690 O.2   140  ALA140     -0.2715
    117  CB        28.3040   -3.9630  -30.7470 C.3   140  ALA140      0.0334
    118  N         30.2790   -1.8010  -28.7910 N.am  141  SER141     -0.1936
    119  CA        31.0250   -0.5550  -28.8240 C.3   141  SER141      0.2055
    120  C         31.9960   -0.5410  -30.0020 C.2   141  SER141      0.2642
    121  O         32.3990    0.5380  -30.4610 O.2   141  SER141     -0.2714
    122  CB        31.7520   -0.2930  -27.4830 C.3   141  SER141      0.2130
    123  OG        32.8720   -1.1400  -27.2330 O.3   141  SER141     -0.2179
    124  N         32.3740   -1.7150  -30.4970 N.am  142  MET142     -0.1976
    125  CA        33.2630   -1.7800  -31.6820 C.3   142  MET142      0.1605
    126  C         32.4500   -2.3660  -32.8370 C.2   142  MET142      0.2287
    127  O         31.6430   -3.2790  -32.6270 O.2   142  MET142     -0.2864
    128  CB        34.4530   -2.7400  -31.5150 C.3   142  MET142      0.0413
    129  CG        34.9840   -2.9750  -30.1440 C.3   142  MET142      0.0598
    130  SD        36.2160   -1.8040  -29.6710 S.3   142  MET142     -0.1393
    131  CE        37.1520   -1.4950  -31.2150 C.3   142  MET142      0.0692
    132  N         33.8220   -9.1800  -32.7050 N.3   146  HIS146     -0.1226
    133  CA        34.4670   -9.6790  -31.4770 C.3   146  HIS146      0.1752
    134  C         33.4470  -10.2980  -30.5520 C.2   146  HIS146      0.2597
    135  O         32.2280  -10.2280  -30.8270 O.2   146  HIS146     -0.2718
    136  CB        35.1190   -8.5280  -30.7200 C.3   146  HIS146      0.0759
    137  CG        34.1620   -7.4220  -30.3750 C.ar  146  HIS146      0.0818
    138  ND1       33.5860   -6.6150  -31.3350 N.ar  146  HIS146     -0.2268
    139  CD2       33.7010   -6.9810  -29.1860 C.ar  146  HIS146      0.1154
    140  CE1       32.8100   -5.7210  -30.7510 C.ar  146  HIS146      0.1986
    141  NE2       32.8630   -5.9180  -29.4490 N.ar  146  HIS146     -0.2212
    142  N         33.9480  -10.9130  -29.4750 N.am  147  SER147     -0.1938
    143  CA        33.0840  -11.4920  -28.4440 C.3   147  SER147      0.2055
    144  C         33.8480  -11.1970  -27.1550 C.2   147  SER147      0.2642
    145  O         35.0540  -10.8620  -27.2070 O.2   147  SER147     -0.2714
    146  CB        32.8660  -13.0060  -28.6460 C.3   147  SER147      0.2130
    147  OG        34.0630  -13.7460  -28.4710 O.3   147  SER147     -0.2179
    148  N         33.1670  -11.2810  -26.0060 N.am  148  GLN148     -0.1976
    149  CA        33.8010  -10.9660  -24.7270 C.3   148  GLN148      0.1601
    150  C         33.7210  -12.1180  -23.7380 C.2   148  GLN148      0.2287
    151  O         32.8010  -12.9400  -23.7850 O.2   148  GLN148     -0.2864
    152  CB        33.1370   -9.7310  -24.0910 C.3   148  GLN148      0.0394
    153  CG        33.2070   -8.4640  -24.9200 C.3   148  GLN148      0.0908
    154  CD        32.7700   -7.2330  -24.1340 C.2   148  GLN148      0.2608
    155  OE1       33.3280   -6.9470  -23.0810 O.2   148  GLN148     -0.2717
    156  NE2       31.7790   -6.4930  -24.6530 N.am  148  GLN148     -0.0878
@<TRIPOS>BOND
     1    11    10    2
     2    10     9    1
     3    27    25   ar
     4     1     2    1
     5     1     7    1
     6     9     8    1
     7     9    12    1
     8     8     3   am
     9    25    26   ar
    10    25    24    1
    11     3     2    1
    12     3     4    2
    13    12    13    1
    14     2     5    1
    15     7     6    1
    16   126   127    2
    17   126   125    1
    18   132   133    1
    19    24    23    1
    20     6     5    1
    21    13    15   ar
    22    13    14   ar
    23    15    17   ar
    24    23    20    1
    25   125   128    1
    26   125   124    1
    27   128   129    1
    28   133   136    1
    29   133   134    1
    30   138   140   ar
    31   138   137   ar
    32    19    20    1
    33    14    16   ar
    34   131   130    1
    35    33    32    1
    36   135   134    2
    37   140   141   ar
    38   117   114    1
    39   136   137    1
    40    20    21    1
    41    17    18   ar
    42   134   142   am
    43   124   120   am
    44   121   120    2
    45   137   139   ar
    46   116   115    2
    47   129   130    1
    48   120   119    1
    49    16    18   ar
    50    21    28   am
    51    21    22    2
    52   104   103    2
    53    28    29    1
    54   115   114    1
    55   115   118   am
    56   142   143    1
    57   103   102    1
    58   141   139   ar
    59    32    29    1
    60   114   113    1
    61   119   118    1
    62   119   122    1
    63    29    30    1
    64   146   147    1
    65   146   143    1
    66   113   111   am
    67    45    43    1
    68   143   144    1
    69   102   101    1
    70   102   105    1
    71    46    44    1
    72    99    98    1
    73   122   123    1
    74    30    31    2
    75    30    34   am
    76    44    43    1
    77   111   112    2
    78   111   110    1
    79   145   144    2
    80    43    40    1
    81   144   148   am
    82   109   110    1
    83   105   106    1
    84    97    96    2
    85    39    40    1
    86    96    95    1
    87    98    95    1
    88    98   100    1
    89    34    35    1
    90    37    36    2
    91    40    41    1
    92   148   149    1
    93    95    94    1
    94   106   108   am
    95   106   107    2
    96    36    35    1
    97    71    69    1
    98    41    42    2
    99    41    47   am
   100    35    38    1
   101   153   154    1
   102   153   152    1
   103    83    82    1
   104   149   152    1
   105   149   150    1
   106   156   154   am
   107    80    82   ar
   108    80    78   ar
   109    50    49    2
   110    47    48    1
   111   154   155    2
   112    68    69    1
   113    68    65    1
   114    82    81   ar
   115   151   150    2
   116    69    70    1
   117    78    77   ar
   118    49    48    1
   119    49    56   am
   120    64    65    1
   121    64    58   am
   122    48    51    1
   123    63    61   am
   124    65    66    1
   125    57    56    1
   126    57    58    1
   127    57    60    1
   128    81    79   ar
   129    62    61    2
   130    61    60    1
   131    58    59    2
   132    77    79   ar
   133    77    76    1
   134    51    52    1
   135    66    72   am
   136    66    67    2
   137    52    53    1
   138    72    73    1
   139    76    73    1
   140    93    91   ar
   141    93    92   ar
   142    91    89   ar
   143    73    74    1
   144    53    55   ar
   145    53    54   ar
   146    87    86    2
   147    86    85    1
   148    92    90   ar
   149    75    74    2
   150    89    90   ar
   151    89    88    1
   152    85    88    1
   153    85    84    1
