@<TRIPOS>MOLECULE
tmp/2q4xA00.pdb
 140 136 0 0 0
SMALL
GASTEIGER

@<TRIPOS>ATOM
      1  N         -4.8200   55.8920   53.9150 N.3    43  ASP43      -0.1239
      2  CA        -4.2700   54.5390   53.7610 C.3    43  ASP43       0.1674
      3  C         -5.2980   53.4100   53.9320 C.2    43  ASP43       0.2266
      4  O         -5.1080   52.2920   53.4160 O.2    43  ASP43      -0.2867
      5  CB        -3.1360   54.2660   54.7400 C.3    43  ASP43       0.1410
      6  CG        -2.2140   53.1570   54.2410 C.2    43  ASP43       0.3668
      7  OD1       -1.7520   53.3100   53.0750 O.co2  43  ASP43      -0.2456
      8  OD2       -1.9680   52.1770   54.9840 O.co2  43  ASP43      -0.2456
      9  N         -7.2010   53.0310   50.4830 N.3    46  PHE46      -0.1227
     10  CA        -6.3350   52.4040   49.4750 C.3    46  PHE46       0.1736
     11  C         -6.2820   50.8890   49.8040 C.2    46  PHE46       0.2595
     12  O         -6.6740   50.0430   48.9930 O.2    46  PHE46      -0.2718
     13  CB        -4.9390   53.0600   49.5480 C.3    46  PHE46       0.0547
     14  CG        -3.8500   52.3120   48.8160 C.ar   46  PHE46      -0.0202
     15  CD1       -3.5160   52.6570   47.5040 C.ar   46  PHE46      -0.0042
     16  CD2       -3.1460   51.2640   49.4520 C.ar   46  PHE46      -0.0042
     17  CE1       -2.4900   51.9860   46.8090 C.ar   46  PHE46      -0.0003
     18  CE2       -2.1250   50.5850   48.7760 C.ar   46  PHE46      -0.0003
     19  CZ        -1.7840   50.9500   47.4280 C.ar   46  PHE46      -0.0000
     20  N         -5.8260   50.5560   51.0040 N.am   47  VAL47      -0.1980
     21  CA        -5.7540   49.1550   51.4060 C.3    47  VAL47       0.1595
     22  C         -7.0070   48.4180   50.9170 C.2    47  VAL47       0.2287
     23  O         -6.8690   47.3300   50.3410 O.2    47  VAL47      -0.2864
     24  CB        -5.5680   48.9990   52.9310 C.3    47  VAL47       0.0276
     25  CG1       -5.7900   47.5660   53.3380 C.3    47  VAL47       0.0022
     26  CG2       -4.1520   49.3730   53.3130 C.3    47  VAL47       0.0022
     27  N         -6.2690   47.9480   47.4680 N.3    50  PHE50      -0.1241
     28  CA        -5.1430   47.0570   47.2820 C.3    50  PHE50       0.1605
     29  C         -5.5640   45.5510   47.3920 C.2    50  PHE50       0.2264
     30  O         -5.0380   44.7010   46.6630 O.2    50  PHE50      -0.2867
     31  CB        -4.0750   47.3980   48.3160 C.3    50  PHE50       0.0534
     32  CG        -2.7450   46.7380   48.0680 C.ar   50  PHE50      -0.0203
     33  CD1       -2.0980   46.8940   46.8580 C.ar   50  PHE50      -0.0042
     34  CD2       -2.1040   46.0050   49.0800 C.ar   50  PHE50      -0.0042
     35  CE1       -0.8490   46.3460   46.6370 C.ar   50  PHE50      -0.0003
     36  CE2       -0.8210   45.4360   48.8630 C.ar   50  PHE50      -0.0003
     37  CZ        -0.1920   45.6130   47.6210 C.ar   50  PHE50      -0.0000
     38  N         -3.4320   41.0520   55.0300 N.3    80  LEU80      -0.1245
     39  CA        -4.3390   42.1500   54.7020 C.3    80  LEU80       0.1561
     40  C         -5.6680   41.9580   55.4420 C.2    80  LEU80       0.2260
     41  O         -6.3710   42.9300   55.7400 O.2    80  LEU80      -0.2867
     42  CB        -4.5510   42.2690   53.1880 C.3    80  LEU80       0.0270
     43  CG        -3.2890   42.7600   52.4380 C.3    80  LEU80       0.0019
     44  CD1       -3.6210   42.8320   50.9420 C.3    80  LEU80       0.0001
     45  CD2       -2.8100   44.1480   52.9570 C.3    80  LEU80       0.0001
     46  N         -4.5230   43.1610   58.7380 N.3    83  GLU83      -0.1245
     47  CA        -4.1560   44.5570   58.6090 C.3    83  GLU83       0.1567
     48  C         -5.4310   45.3590   58.4520 C.2    83  GLU83       0.2260
     49  O         -5.5870   46.4020   59.1070 O.2    83  GLU83      -0.2867
     50  CB        -3.2130   44.7770   57.4400 C.3    83  GLU83       0.0388
     51  CG        -3.2060   46.2020   56.9290 C.3    83  GLU83       0.1160
     52  CD        -2.1800   46.3840   55.8100 C.2    83  GLU83       0.3649
     53  OE1       -1.9840   47.5200   55.2970 O.co2  83  GLU83      -0.2457
     54  OE2       -1.5530   45.3650   55.4480 O.co2  83  GLU83      -0.2457
     55  N         -4.7890   56.2320   42.6120 N.3   110  TYR110     -0.1241
     56  CA        -4.1780   54.9510   42.9260 C.3   110  TYR110      0.1605
     57  C         -5.2590   53.8880   42.8460 C.2   110  TYR110      0.2264
     58  O         -5.0080   52.7000   42.6870 O.2   110  TYR110     -0.2867
     59  CB        -3.5770   54.9790   44.3570 C.3   110  TYR110      0.0534
     60  CG        -2.1760   54.4020   44.4490 C.ar  110  TYR110     -0.0201
     61  CD1       -1.8060   53.2060   43.7530 C.ar  110  TYR110     -0.0009
     62  CD2       -1.2200   55.0220   45.2110 C.ar  110  TYR110     -0.0009
     63  CE1       -0.5160   52.6750   43.8410 C.ar  110  TYR110      0.0417
     64  CE2        0.0500   54.5060   45.3130 C.ar  110  TYR110      0.0417
     65  CZ         0.4070   53.3270   44.6330 C.ar  110  TYR110      0.1957
     66  OH         1.6640   52.8180   44.8620 O.3   110  TYR110     -0.2866
     67  N          5.3170   48.0450   45.9420 N.3   132  ILE132     -0.1231
     68  CA         4.3480   48.5480   46.8850 C.3   132  ILE132      0.1692
     69  C          4.6460   48.0260   48.3150 C.2   132  ILE132      0.2591
     70  O          4.4300   48.7840   49.2960 O.2   132  ILE132     -0.2718
     71  CB         2.9150   48.1630   46.4280 C.3   132  ILE132      0.0266
     72  CG1        2.6490   48.7890   45.0570 C.3   132  ILE132      0.0019
     73  CG2        1.8710   48.6530   47.4650 C.3   132  ILE132      0.0020
     74  CD1        1.2780   48.4250   44.4670 C.3   132  ILE132      0.0001
     75  N          5.1560   46.7800   48.4440 N.am  133  GLU133     -0.1979
     76  CA         5.4770   46.2340   49.7650 C.3   133  GLU133      0.1602
     77  C          6.7180   46.9290   50.3060 C.2   133  GLU133      0.2287
     78  O          6.7140   47.5620   51.3720 O.2   133  GLU133     -0.2864
     79  CB         5.7220   44.7210   49.7110 C.3   133  GLU133      0.0415
     80  CG         4.5240   43.9160   49.2360 C.3   133  GLU133      0.1163
     81  CD         3.2960   44.2000   50.0340 C.2   133  GLU133      0.3649
     82  OE1        2.8670   45.3710   50.0900 O.co2 133  GLU133     -0.2457
     83  OE2        2.7400   43.2670   50.6270 O.co2 133  GLU133     -0.2457
     84  N          6.5380   50.5220   51.7000 N.3   136  TYR136     -0.1241
     85  CA         6.0400   50.6750   53.0450 C.3   136  TYR136      0.1605
     86  C          6.9570   50.0630   54.0470 C.2   136  TYR136      0.2264
     87  O          7.0060   50.5560   55.1830 O.2   136  TYR136     -0.2867
     88  CB         4.6060   50.1870   53.2190 C.3   136  TYR136      0.0534
     89  CG         3.7570   51.4370   53.3660 C.ar  136  TYR136     -0.0201
     90  CD1        3.9550   52.5350   52.4800 C.ar  136  TYR136     -0.0009
     91  CD2        2.8350   51.5830   54.4130 C.ar  136  TYR136     -0.0009
     92  CE1        3.2830   53.7190   52.6200 C.ar  136  TYR136      0.0417
     93  CE2        2.1390   52.8180   54.5580 C.ar  136  TYR136      0.0417
     94  CZ         2.3710   53.8610   53.6530 C.ar  136  TYR136      0.1957
     95  OH         1.6450   55.0040   53.7260 O.3   136  TYR136     -0.2866
     96  N          4.1080   47.4400   60.1580 N.3   161  TRP161     -0.1241
     97  CA         4.9080   47.3720   58.9340 C.3   161  TRP161      0.1605
     98  C          6.3990   47.3630   59.2620 C.2   161  TRP161      0.2264
     99  O          7.2100   47.3970   58.3580 O.2   161  TRP161     -0.2867
    100  CB         4.5720   48.5600   57.9810 C.3   161  TRP161      0.0550
    101  CG         3.2320   48.4330   57.3000 C.ar  161  TRP161      0.0003
    102  CD1        2.9460   47.7040   56.1740 C.ar  161  TRP161      0.0946
    103  CD2        1.9740   48.9330   57.7750 C.ar  161  TRP161      0.0152
    104  NE1        1.5900   47.7140   55.9250 N.ar  161  TRP161     -0.2442
    105  CE2        0.9700   48.4510   56.8940 C.ar  161  TRP161      0.0810
    106  CE3        1.5950   49.7430   58.8650 C.ar  161  TRP161      0.0012
    107  CZ2       -0.3930   48.7400   57.0720 C.ar  161  TRP161      0.0191
    108  CZ3        0.2400   50.0320   59.0400 C.ar  161  TRP161      0.0001
    109  CH2       -0.7420   49.5260   58.1430 C.ar  161  TRP161      0.0015
    110  N          7.1870   40.9770   58.5210 N.3   166  PHE166     -0.1241
    111  CA         6.8710   41.6680   57.2550 C.3   166  PHE166      0.1605
    112  C          8.1560   41.8650   56.4120 C.2   166  PHE166      0.2264
    113  O          8.1310   41.7500   55.1750 O.2   166  PHE166     -0.2867
    114  CB         6.1640   42.9820   57.5640 C.3   166  PHE166      0.0534
    115  CG         5.7520   43.7750   56.3400 C.ar  166  PHE166     -0.0203
    116  CD1        4.7160   43.3360   55.5080 C.ar  166  PHE166     -0.0042
    117  CD2        6.3810   44.9950   56.0510 C.ar  166  PHE166     -0.0042
    118  CE1        4.2750   44.0930   54.3810 C.ar  166  PHE166     -0.0003
    119  CE2        5.9500   45.7660   54.9170 C.ar  166  PHE166     -0.0003
    120  CZ         4.8850   45.2950   54.0880 C.ar  166  PHE166     -0.0000
    121  N          3.5160   56.8030   45.2990 N.3   203  GLU203     -0.1245
    122  CA         3.8370   56.7700   46.7200 C.3   203  GLU203      0.1567
    123  C          4.2350   58.1940   47.1590 C.2   203  GLU203      0.2260
    124  O          3.8940   58.6040   48.2700 O.2   203  GLU203     -0.2867
    125  CB         4.9870   55.7870   46.9990 C.3   203  GLU203      0.0388
    126  CG         4.5890   54.3220   46.8010 C.3   203  GLU203      0.1160
    127  CD         3.4930   53.9090   47.7890 C.2   203  GLU203      0.3649
    128  OE1        3.4240   54.5120   48.8970 O.co2 203  GLU203     -0.2457
    129  OE2        2.7150   52.9900   47.4490 O.co2 203  GLU203     -0.2457
    130  N          1.1850   60.4870   47.2790 N.3   206  PHE206     -0.1241
    131  CA         0.2700   59.9340   48.2940 C.3   206  PHE206      0.1605
    132  C          0.7720   60.4680   49.6270 C.2   206  PHE206      0.2264
    133  O          0.0130   60.9850   50.4700 O.2   206  PHE206     -0.2867
    134  CB         0.3740   58.3970   48.3250 C.3   206  PHE206      0.0534
    135  CG        -0.5870   57.7430   49.2880 C.ar  206  PHE206     -0.0203
    136  CD1       -0.3310   57.7340   50.6690 C.ar  206  PHE206     -0.0042
    137  CD2       -1.7890   57.1930   48.8210 C.ar  206  PHE206     -0.0042
    138  CE1       -1.2640   57.1870   51.5760 C.ar  206  PHE206     -0.0003
    139  CE2       -2.7320   56.6390   49.7180 C.ar  206  PHE206     -0.0003
    140  CZ        -2.4750   56.6350   51.1010 C.ar  206  PHE206     -0.0000
@<TRIPOS>BOND
     1    55    56    1
     2    58    57    2
     3    57    56    1
     4    56    59    1
     5    61    63   ar
     6    61    60   ar
     7    63    65   ar
     8    59    60    1
     9    60    62   ar
    10    74    72    1
    11    65    66    1
    12    65    64   ar
    13    72    71    1
    14    62    64   ar
    15   121   122    1
    16    67    68    1
    17    71    68    1
    18    71    73    1
    19    35    33   ar
    20    35    37   ar
    21    30    29    2
    22   122   125    1
    23   122   123    1
    24   126   125    1
    25   126   127    1
    26    17    19   ar
    27    17    15   ar
    28    33    32   ar
    29    68    69    1
    30   123   124    2
    31   130   131    1
    32    28    29    1
    33    28    27    1
    34    28    31    1
    35    19    18   ar
    36   129   127   ar
    37    15    14   ar
    38    37    36   ar
    39   127   128   ar
    40    32    31    1
    41    32    34   ar
    42   131   134    1
    43   131   132    1
    44    69    75   am
    45    69    70    2
    46   134   135    1
    47    75    76    1
    48    18    16   ar
    49    14    16   ar
    50    14    13    1
    51   137   135   ar
    52   137   139   ar
    53    36    34   ar
    54    12    11    2
    55    80    79    1
    56    80    81    1
    57   135   136   ar
    58    10    13    1
    59    10    11    1
    60    10     9    1
    61   132   133    2
    62    79    76    1
    63   139   140   ar
    64    76    77    1
    65    11    20   am
    66    81    82   ar
    67    81    83   ar
    68    77    78    2
    69    23    22    2
    70   136   138   ar
    71    22    21    1
    72    44    43    1
    73    20    21    1
    74   140   138   ar
    75    21    24    1
    76    84    85    1
    77    43    45    1
    78    43    42    1
    79    90    92   ar
    80    90    89   ar
    81    92    94   ar
    82    24    26    1
    83    24    25    1
    84    85    88    1
    85    85    86    1
    86     7     6   ar
    87    42    39    1
    88    88    89    1
    89    89    91   ar
    90     4     3    2
    91    94    95    1
    92    94    93   ar
    93     2     1    1
    94     2     3    1
    95     2     5    1
    96    86    87    2
    97   120   118   ar
    98   120   119   ar
    99     6     5    1
   100     6     8   ar
   101   118   116   ar
   102    91    93   ar
   103    39    38    1
   104    39    40    1
   105   119   117   ar
   106   113   112    2
   107    53    52   ar
   108    40    41    2
   109    54    52   ar
   110   116   115   ar
   111    52    51    1
   112   104   102   ar
   113   104   105   ar
   114   117   115   ar
   115   102   101   ar
   116   115   114    1
   117   112   111    1
   118   105   107   ar
   119   105   103   ar
   120    51    50    1
   121   107   109   ar
   122   111   114    1
   123   111   110    1
   124   101   103   ar
   125   101   100    1
   126    50    47    1
   127   103   106   ar
   128   100    97    1
   129   109   108   ar
   130    99    98    2
   131    48    47    1
   132    48    49    2
   133    47    46    1
   134   106   108   ar
   135    97    98    1
   136    97    96    1
