@<TRIPOS>MOLECULE
tmp/2q4yA00.pdb
 129 127 0 0 0
SMALL
GASTEIGER

@<TRIPOS>ATOM
      1  N         -3.9360   -4.4220    2.5120 N.3    37  HIS37      -0.1226
      2  CA        -5.0690   -3.5160    2.2870 C.3    37  HIS37       0.1752
      3  C         -4.6370   -2.1650    2.7950 C.2    37  HIS37       0.2597
      4  O         -3.8450   -2.1140    3.7400 O.2    37  HIS37      -0.2718
      5  CB        -6.2930   -3.9850    3.0960 C.3    37  HIS37       0.0759
      6  CG        -7.3990   -2.9570    3.2700 C.ar   37  HIS37       0.0818
      7  ND1       -7.9190   -2.2340    2.2180 N.ar   37  HIS37      -0.2268
      8  CD2       -8.2730   -2.7510    4.2940 C.ar   37  HIS37       0.1154
      9  CE1       -9.0610   -1.6540    2.5630 C.ar   37  HIS37       0.1986
     10  NE2       -9.3130   -1.9600    3.8130 N.ar   37  HIS37      -0.2212
     11  N         -5.1570   -1.0660    2.2240 N.am   38  THR38      -0.1939
     12  CA        -4.7650    0.2270    2.7670 C.3    38  THR38       0.2028
     13  C         -6.1060    0.9360    3.1260 C.2    38  THR38       0.2642
     14  O         -7.1050    0.7530    2.4010 O.2    38  THR38      -0.2714
     15  CB        -4.0980    1.0790    1.7410 C.3    38  THR38       0.1808
     16  OG1       -2.9290    0.4360    1.1800 O.3    38  THR38      -0.2208
     17  CG2       -3.8910    2.5360    2.3300 C.3    38  THR38       0.0379
     18  N         -6.1420    1.7590    4.1830 N.am   39  TYR39      -0.1959
     19  CA        -7.4120    2.4550    4.4550 C.3    39  TYR39       0.1771
     20  C         -7.3070    3.9310    4.8780 C.2    39  TYR39       0.2619
     21  O         -6.7280    4.2590    5.9250 O.2    39  TYR39      -0.2715
     22  CB        -8.3590    1.6130    5.4750 C.3    39  TYR39       0.0574
     23  CG        -9.8210    2.3030    5.6540 C.ar   39  TYR39      -0.0198
     24  CD1      -10.8960    2.0160    4.7530 C.ar   39  TYR39      -0.0009
     25  CD2      -10.0450    3.3380    6.6000 C.ar   39  TYR39      -0.0009
     26  CE1      -12.1170    2.6980    4.7580 C.ar   39  TYR39       0.0417
     27  CE2      -11.3520    4.0790    6.6180 C.ar   39  TYR39       0.0417
     28  CZ       -12.3640    3.7080    5.6660 C.ar   39  TYR39       0.1957
     29  OH       -13.6360    4.3200    5.6340 O.3    39  TYR39      -0.2866
     30  N         -7.9220    4.8000    4.0370 N.am   40  VAL40      -0.1977
     31  CA        -8.0630    6.2040    4.3080 C.3    40  VAL40       0.1596
     32  C         -9.5900    6.5400    4.3160 C.2    40  VAL40       0.2287
     33  O        -10.3250    6.2100    3.3860 O.2    40  VAL40      -0.2864
     34  CB        -7.4100    7.1040    3.2620 C.3    40  VAL40       0.0276
     35  CG1       -7.8500    8.6210    3.5210 C.3    40  VAL40       0.0022
     36  CG2       -5.8770    6.9420    3.3250 C.3    40  VAL40       0.0022
     37  N        -10.5570   12.5960    4.0640 N.3    44  LYS44      -0.1231
     38  CA        -9.1230   12.6440    3.9820 C.3    44  LYS44       0.1693
     39  C         -8.5160   12.1670    2.6160 C.2    44  LYS44       0.2592
     40  O         -7.2620   12.1400    2.4350 O.2    44  LYS44      -0.2718
     41  CB        -8.4980   11.7790    5.1180 C.3    44  LYS44       0.0285
     42  CG        -8.5740   12.3470    6.5840 C.3    44  LYS44       0.0035
     43  CD        -8.4690   11.2780    7.7840 C.3    44  LYS44       0.0206
     44  CE        -7.0210   10.7340    8.0340 C.3    44  LYS44       0.1093
     45  NZ        -6.6460    9.7170    9.2050 N.3    44  LYS44      -0.1314
     46  N         -9.3970   11.7980    1.6940 N.am   45  ARG45      -0.1966
     47  CA        -9.0430   11.3050    0.3680 C.3    45  ARG45       0.1729
     48  C         -8.5010   12.3180   -0.6920 C.2    45  ARG45       0.2617
     49  O         -8.9180   13.4840   -0.7190 O.2    45  ARG45      -0.2715
     50  CB       -10.2470   10.5260   -0.1920 C.3    45  ARG45       0.0348
     51  CG       -10.1880    9.1190    0.3770 C.3    45  ARG45       0.0492
     52  CD       -11.2130    8.1920   -0.1880 C.3    45  ARG45       0.2205
     53  NE       -11.4070    7.1260    0.7780 N.pl3  45  ARG45      -0.0865
     54  CZ       -12.5810    6.7260    1.2370 C.cat  45  ARG45       0.5346
     55  NH1      -13.6750    7.3180    0.7810 N.pl3  45  ARG45       0.1354
     56  NH2      -12.6700    5.7500    2.1730 N.pl3  45  ARG45       0.1354
     57  N         -7.5260   11.8710   -1.5270 N.am   46  GLY46      -0.1940
     58  CA        -6.9570   12.7160   -2.6010 C.3    46  GLY46       0.2014
     59  C         -5.7840   13.6670   -2.1560 C.2    46  GLY46       0.2639
     60  O         -5.1730   14.3930   -3.0040 O.2    46  GLY46      -0.2714
     61  N         -5.4900   13.6770   -0.8700 N.am   47  LEU47      -0.1963
     62  CA        -4.3890   14.4630   -0.4240 C.3    47  LEU47       0.1728
     63  C         -3.0700   13.6320   -0.2700 C.2    47  LEU47       0.2617
     64  O         -2.2340   13.9770    0.5130 O.2    47  LEU47      -0.2715
     65  CB        -4.6720   15.1560    0.9230 C.3    47  LEU47       0.0311
     66  CG        -6.0350   15.8400    0.9880 C.3    47  LEU47       0.0022
     67  CD1       -6.2110   16.4140    2.4230 C.3    47  LEU47       0.0001
     68  CD2       -6.1940   16.9960   -0.0700 C.3    47  LEU47       0.0001
     69  N         -2.8870   12.5230   -0.9750 N.am   48  GLY48      -0.1940
     70  CA        -1.6100   11.8480   -0.8250 C.3    48  GLY48       0.2014
     71  C         -1.4940   11.0240    0.4600 C.2    48  GLY48       0.2639
     72  O         -0.5480   10.2750    0.5920 O.2    48  GLY48      -0.2714
     73  N         -2.4720   11.0860    1.3650 N.am   49  LEU49      -0.1963
     74  CA        -2.3430   10.2750    2.5410 C.3    49  LEU49       0.1728
     75  C         -2.0210    8.7890    2.1750 C.2    49  LEU49       0.2616
     76  O         -1.1500    8.2330    2.8260 O.2    49  LEU49      -0.2715
     77  CB        -3.5380   10.4320    3.5160 C.3    49  LEU49       0.0311
     78  CG        -3.1970   10.1470    5.0510 C.3    49  LEU49       0.0022
     79  CD1       -2.0040   10.9280    5.5440 C.3    49  LEU49       0.0001
     80  CD2       -4.3380   10.5220    5.9510 C.3    49  LEU49       0.0001
     81  N         -2.6540    8.1600    1.1610 N.am   50  ALA50      -0.1977
     82  CA        -2.3500    6.7370    0.7900 C.3    50  ALA50       0.1597
     83  C         -0.9080    6.4390    0.3790 C.2    50  ALA50       0.2287
     84  O         -0.3800    5.3910    0.7140 O.2    50  ALA50      -0.2864
     85  CB        -3.2630    6.2280   -0.2730 C.3    50  ALA50       0.0319
     86  N         -4.3260   -3.5210   -4.1440 N.3    73  SER73      -0.1202
     87  CA        -4.3160   -2.9670   -5.5520 C.3    73  SER73       0.2020
     88  C         -3.9130   -1.4770   -5.5340 C.2    73  SER73       0.2618
     89  O         -3.5850   -0.8980   -6.5860 O.2    73  SER73      -0.2717
     90  CB        -5.6750   -3.0580   -6.2730 C.3    73  SER73       0.2103
     91  OG        -6.4580   -4.2450   -5.8650 O.3    73  SER73      -0.2182
     92  N         -3.9260   -0.8200   -4.3790 N.am   74  TYR74      -0.1975
     93  CA        -3.4120    0.5600   -4.4440 C.3    74  TYR74       0.1639
     94  C         -1.8500    0.5360   -4.6740 C.2    74  TYR74       0.2290
     95  O         -1.2640    1.4210   -5.3190 O.2    74  TYR74      -0.2864
     96  CB        -3.7840    1.3630   -3.1500 C.3    74  TYR74       0.0560
     97  CG        -3.1940    2.8000   -3.1800 C.ar   74  TYR74      -0.0198
     98  CD1       -3.8690    3.8600   -3.8350 C.ar   74  TYR74      -0.0009
     99  CD2       -1.9640    3.0660   -2.5850 C.ar   74  TYR74      -0.0009
    100  CE1       -3.3260    5.2050   -3.8620 C.ar   74  TYR74       0.0417
    101  CE2       -1.4000    4.2890   -2.5860 C.ar   74  TYR74       0.0417
    102  CZ        -2.0670    5.3720   -3.2150 C.ar   74  TYR74       0.1957
    103  OH        -1.4690    6.5780   -3.2270 O.3    74  TYR74      -0.2866
    104  N         -0.8320   -0.7730   -8.2590 N.3    77  ASP77      -0.1225
    105  CA        -1.4810   -0.0030   -9.3850 C.3    77  ASP77       0.1805
    106  C         -1.3360    1.5200   -9.4650 C.2    77  ASP77       0.2598
    107  O         -1.5220    2.0860  -10.5870 O.2    77  ASP77      -0.2718
    108  CB        -2.9250   -0.2260   -9.4810 C.3    77  ASP77       0.1424
    109  CG        -3.2310   -1.5890   -9.9710 C.2    77  ASP77       0.3668
    110  OD1       -2.5090   -2.5870   -9.5750 O.co2  77  ASP77      -0.2456
    111  OD2       -4.1990   -1.6470  -10.7610 O.co2  77  ASP77      -0.2456
    112  N         -1.0490    2.1510   -8.3300 N.am   78  THR78      -0.1953
    113  CA        -0.9930    3.5820   -8.3170 C.3    78  THR78       0.1897
    114  C          0.3000    3.9350   -7.6500 C.2    78  THR78       0.2313
    115  O          1.1230    4.6580   -8.1800 O.2    78  THR78      -0.2863
    116  CB        -2.1500    4.1730   -7.4760 C.3    78  THR78       0.1794
    117  OG1       -3.3840    3.9150   -8.0970 O.3    78  THR78      -0.2208
    118  CG2       -1.9310    5.7460   -7.2880 C.3    78  THR78       0.0378
    119  N          3.7850    4.9060   -9.7180 N.3    82  ARG82      -0.1245
    120  CA         4.2530    6.2720   -9.5900 C.3    82  ARG82       0.1563
    121  C          5.6090    6.3380   -8.8740 C.2    82  ARG82       0.2260
    122  O          6.2330    7.4170   -8.9370 O.2    82  ARG82      -0.2867
    123  CB         3.2110    7.1890   -8.9710 C.3    82  ARG82       0.0307
    124  CG         1.8000    7.0810   -9.6450 C.3    82  ARG82       0.0489
    125  CD         0.7460    8.0610   -9.0780 C.3    82  ARG82       0.2205
    126  NE        -0.5660    7.8940   -9.7070 N.pl3  82  ARG82      -0.0865
    127  CZ        -1.6820    8.4800   -9.2940 C.cat  82  ARG82       0.5346
    128  NH1       -1.5740    9.2640   -8.2070 N.pl3  82  ARG82       0.1354
    129  NH2       -2.8560    8.3060   -9.9120 N.pl3  82  ARG82       0.1354
@<TRIPOS>BOND
     1   111   109   ar
     2   107   106    2
     3   109   110   ar
     4   109   108    1
     5   129   127    1
     6   119   120    1
     7   126   127    2
     8   126   125    1
     9   124   125    1
    10   124   123    1
    11   120   123    1
    12   120   121    1
    13   108   105    1
    14   106   105    1
    15   106   112   am
    16   105   104    1
    17   127   128    1
    18   122   121    2
    19   112   113    1
    20   113   114    1
    21   113   116    1
    22   115   114    2
    23   117   116    1
    24   116   118    1
    25    89    88    2
    26    90    91    1
    27    90    87    1
    28    87    88    1
    29    87    86    1
    30    88    92   am
    31    95    94    2
    32    94    93    1
    33    93    92    1
    34    93    96    1
    35   100    98   ar
    36   100   102   ar
    37    98    97   ar
    38   103   102    1
    39   102   101   ar
    40    97    96    1
    41    97    99   ar
    42    60    59    2
    43    58    59    1
    44    58    57    1
    45   101    99   ar
    46    59    61   am
    47    57    48   am
    48    69    70    1
    49    69    63   am
    50    61    62    1
    51    70    71    1
    52    49    48    2
    53    48    47    1
    54    62    63    1
    55    62    65    1
    56    85    82    1
    57    63    64    2
    58    50    47    1
    59    50    51    1
    60    52    51    1
    61    52    53    1
    62    68    66    1
    63    47    46    1
    64    83    84    2
    65    83    82    1
    66    71    72    2
    67    71    73   am
    68    53    54    2
    69    55    54    1
    70    82    81    1
    71    65    66    1
    72    66    67    1
    73    81    75   am
    74    16    15    1
    75    54    56    1
    76    73    74    1
    77    46    39   am
    78    15    17    1
    79    15    12    1
    80    75    74    1
    81    75    76    2
    82     7     9   ar
    83     7     6   ar
    84    11    12    1
    85    11     3   am
    86     2     1    1
    87     2     3    1
    88     2     5    1
    89    14    13    2
    90    40    39    2
    91    74    77    1
    92     9    10   ar
    93    39    38    1
    94    12    13    1
    95     3     4    2
    96     5     6    1
    97    13    18   am
    98    34    36    1
    99    34    35    1
   100    34    31    1
   101     6     8   ar
   102    33    32    2
   103    77    78    1
   104    10     8   ar
   105    38    37    1
   106    38    41    1
   107    30    31    1
   108    30    20   am
   109    18    19    1
   110    31    32    1
   111    19    20    1
   112    19    22    1
   113    24    26   ar
   114    24    23   ar
   115    26    28   ar
   116    20    21    2
   117    78    79    1
   118    78    80    1
   119    41    42    1
   120    22    23    1
   121    29    28    1
   122    23    25   ar
   123    28    27   ar
   124    42    43    1
   125    25    27   ar
   126    43    44    1
   127    44    45    1
