@<TRIPOS>MOLECULE
tmp/2q54B00.pdb
 116 109 0 0 0
SMALL
GASTEIGER

@<TRIPOS>ATOM
      1  N         19.4070   11.9920   15.6330 N.3     8  ARG8       -0.1245
      2  CA        18.6890   10.7940   15.2410 C.3     8  ARG8        0.1563
      3  C         17.6790   11.1560   14.1490 C.2     8  ARG8        0.2260
      4  O         16.9240   12.1300   14.3060 O.2     8  ARG8       -0.2867
      5  CB        17.9690   10.1760   16.4350 C.3     8  ARG8        0.0307
      6  CG        18.8970    9.5380   17.4360 C.3     8  ARG8        0.0489
      7  CD        18.1150    8.8170   18.5240 C.3     8  ARG8        0.2205
      8  NE        19.0070    8.1410   19.4610 N.pl3   8  ARG8       -0.0865
      9  CZ        18.6070    7.3930   20.4930 C.cat   8  ARG8        0.5346
     10  NH1       17.3150    7.2010   20.7710 N.pl3   8  ARG8        0.1354
     11  NH2       19.5140    6.8320   21.2730 N.pl3   8  ARG8        0.1354
     12  N         12.5240    6.1190   13.9500 N.3    23  LEU23      -0.1245
     13  CA        13.8520    6.2270   13.3670 C.3    23  LEU23       0.1561
     14  C         13.8610    5.6530   11.9690 C.2    23  LEU23       0.2260
     15  O         13.4640    4.5050   11.7810 O.2    23  LEU23      -0.2867
     16  CB        14.8650    5.3960   14.1710 C.3    23  LEU23       0.0270
     17  CG        15.7080    5.9820   15.2780 C.3    23  LEU23       0.0019
     18  CD1       16.6300    4.8870   15.8000 C.3    23  LEU23       0.0001
     19  CD2       16.5040    7.1710   14.7920 C.3    23  LEU23       0.0001
     20  N         15.9230    3.8040    9.7930 N.3    25  ASP25      -0.1239
     21  CA        17.0420    2.9790   10.2250 C.3    25  ASP25       0.1674
     22  C         17.5520    2.0130    9.1420 C.2    25  ASP25       0.2266
     23  O         17.0350    0.8970    8.9740 O.2    25  ASP25      -0.2867
     24  CB        16.6310    2.2080   11.4710 C.3    25  ASP25       0.1410
     25  CG        17.7860    1.4530   12.1030 C.2    25  ASP25       0.3668
     26  OD1       18.9370    1.5530   11.6150 O.co2  25  ASP25      -0.2456
     27  OD2       17.5290    0.7730   13.1070 O.co2  25  ASP25      -0.2456
     28  N         20.1600    0.3470    9.2950 N.3    27  GLY27      -0.1210
     29  CA        20.7380   -0.8180    9.9570 C.3    27  GLY27       0.1956
     30  C         19.7130   -1.8130   10.4880 C.2    27  GLY27       0.2612
     31  O         20.0870   -2.7690   11.1680 O.2    27  GLY27      -0.2717
     32  N         18.4330   -1.6050   10.1760 N.am   28  ALA28      -0.1965
     33  CA        17.3820   -2.5440   10.5690 C.3    28  ALA28       0.1728
     34  C         16.7780   -3.2420    9.3490 C.2    28  ALA28       0.2616
     35  O         16.2840   -2.5840    8.4200 O.2    28  ALA28      -0.2715
     36  CB        16.2970   -1.8270   11.3630 C.3    28  ALA28       0.0334
     37  N         16.7970   -4.5770    9.3570 N.am   29  ASP29      -0.1957
     38  CA        16.1810   -5.3440    8.2670 C.3    29  ASP29       0.1840
     39  C         14.6810   -5.1090    8.2830 C.2    29  ASP29       0.2622
     40  O         14.0380   -5.0180    7.2290 O.2    29  ASP29      -0.2715
     41  CB        16.3680   -6.8540    8.4490 C.3    29  ASP29       0.1450
     42  CG        17.8070   -7.2970    8.4180 C.2    29  ASP29       0.3671
     43  OD1       18.6920   -6.5080    8.0400 O.co2  29  ASP29      -0.2456
     44  OD2       18.0410   -8.4770    8.7660 O.co2  29  ASP29      -0.2456
     45  N         14.1430   -5.0390    9.5030 N.am   30  ASP30      -0.1971
     46  CA        12.7220   -5.0750    9.7590 C.3    30  ASP30       0.1709
     47  C         12.2650   -3.8330   10.5080 C.2    30  ASP30       0.2293
     48  O         13.0440   -3.1720   11.1990 O.2    30  ASP30      -0.2864
     49  CB        12.3720   -6.3220   10.5820 C.3    30  ASP30       0.1436
     50  CG        12.8670   -7.6140    9.9400 C.2    30  ASP30       0.3671
     51  OD1       12.5530   -7.8630    8.7480 O.co2  30  ASP30      -0.2456
     52  OD2       13.5620   -8.3930   10.6350 O.co2  30  ASP30      -0.2456
     53  N         10.2090   -2.2770   13.4890 N.3    32  VAL32      -0.1245
     54  CA         9.8820   -2.6880   14.8500 C.3    32  VAL32       0.1561
     55  C          9.2850   -1.4970   15.6050 C.2    32  VAL32       0.2260
     56  O          9.9290   -0.4560   15.7750 O.2    32  VAL32      -0.2867
     57  CB        11.1130   -3.2270   15.6270 C.3    32  VAL32       0.0252
     58  CG1       10.6540   -4.0070   16.8720 C.3    32  VAL32       0.0019
     59  CG2       12.0130   -4.0940   14.7240 C.3    32  VAL32       0.0019
     60  N         13.5310  -11.3520   17.6960 N.3    47  ILE47      -0.1231
     61  CA        14.4810  -10.5550   16.9330 C.3    47  ILE47       0.1692
     62  C         15.6240  -10.1250   17.8410 C.2    47  ILE47       0.2593
     63  O         15.4320   -9.8010   19.0220 O.2    47  ILE47      -0.2718
     64  CB        13.8160   -9.3380   16.2610 C.3    47  ILE47       0.0266
     65  CG1       13.1220   -8.4420   17.2900 C.3    47  ILE47       0.0019
     66  CG2       12.8160   -9.8130   15.2130 C.3    47  ILE47       0.0020
     67  CD1       12.8570   -7.0610   16.7690 C.3    47  ILE47       0.0001
     68  N         16.8220  -10.1530   17.2830 N.am   48  GLY48      -0.1942
     69  CA        18.0110   -9.9270   18.0680 C.3    48  GLY48       0.2014
     70  C         18.6410   -8.6310   17.6490 C.2    48  GLY48       0.2639
     71  O         18.4400   -8.1720   16.5350 O.2    48  GLY48      -0.2714
     72  N         19.4050   -8.0460   18.5530 N.am   49  GLY49      -0.1939
     73  CA        20.2570   -6.9110   18.2300 C.3    49  GLY49       0.2014
     74  C         21.3390   -6.7800   19.2810 C.2    49  GLY49       0.2638
     75  O         21.7120   -7.7590   19.9130 O.2    49  GLY49      -0.2714
     76  N         21.8490   -5.5740   19.4830 N.am   50  ILE50      -0.1977
     77  CA        22.8050   -5.3770   20.5580 C.3    50  ILE50       0.1596
     78  C         22.0690   -5.6300   21.8810 C.2    50  ILE50       0.2287
     79  O         20.9520   -5.1450   22.0890 O.2    50  ILE50      -0.2864
     80  CB        23.4650   -3.9900   20.4930 C.3    50  ILE50       0.0276
     81  CG1       24.5990   -4.0400   19.4510 C.3    50  ILE50       0.0022
     82  CG2       24.0100   -3.5760   21.8610 C.3    50  ILE50       0.0022
     83  CD1       25.3080   -2.7650   19.2500 C.3    50  ILE50       0.0001
     84  N         18.0110  -10.6940   22.4860 N.3    53  PHE53      -0.1241
     85  CA        16.7880  -10.8460   21.7140 C.3    53  PHE53       0.1605
     86  C         15.5810  -10.3420   22.4930 C.2    53  PHE53       0.2264
     87  O         15.5710  -10.3480   23.7350 O.2    53  PHE53      -0.2867
     88  CB        16.5640  -12.3190   21.3240 C.3    53  PHE53       0.0534
     89  CG        17.4110  -12.7860   20.1700 C.ar   53  PHE53      -0.0203
     90  CD1       18.7640  -13.0680   20.3510 C.ar   53  PHE53      -0.0042
     91  CD2       16.8620  -12.9630   18.9060 C.ar   53  PHE53      -0.0042
     92  CE1       19.5480  -13.4930   19.3080 C.ar   53  PHE53      -0.0003
     93  CE2       17.6520  -13.4030   17.8430 C.ar   53  PHE53      -0.0003
     94  CZ        18.9940  -13.6680   18.0450 C.ar   53  PHE53      -0.0000
     95  N         12.8650   -0.0680   22.6800 N.3    81  PRO81      -0.2102
     96  CA        12.9750    1.2690   23.2800 C.3    81  PRO81       0.1504
     97  C         12.6040    2.4280   22.3550 C.2    81  PRO81       0.2575
     98  O         12.2750    3.5220   22.8330 O.2    81  PRO81      -0.2718
     99  CB        14.4690    1.3820   23.6310 C.3    81  PRO81       0.0282
    100  CG        15.0190   -0.0010   23.5300 C.3    81  PRO81       0.0208
    101  CD        14.1820   -0.7070   22.5240 C.3    81  PRO81       0.0893
    102  N         12.6810    2.1900   21.0470 N.am   82  VAL82      -0.1980
    103  CA        12.4620    3.2180   20.0340 C.3    82  VAL82       0.1595
    104  C         11.7390    2.5950   18.8370 C.2    82  VAL82       0.2287
    105  O         11.9950    1.4370   18.4870 O.2    82  VAL82      -0.2864
    106  CB        13.8190    3.8200   19.5730 C.3    82  VAL82       0.0276
    107  CG1       13.6260    4.8480   18.4590 C.3    82  VAL82       0.0022
    108  CG2       14.5590    4.4390   20.7540 C.3    82  VAL82       0.0022
    109  N         11.3360    1.8730   15.1010 N.3    84  ILE84      -0.1245
    110  CA        12.3360    1.6720   14.0730 C.3    84  ILE84       0.1561
    111  C         11.6760    1.3800   12.7170 C.2    84  ILE84       0.2260
    112  O         10.9350    0.4020   12.5850 O.2    84  ILE84      -0.2867
    113  CB        13.2280    0.4720   14.4300 C.3    84  ILE84       0.0252
    114  CG1       14.0810    0.7870   15.6630 C.3    84  ILE84       0.0019
    115  CG2       14.1110    0.0900   13.2430 C.3    84  ILE84       0.0019
    116  CD1       14.5950   -0.4570   16.3740 C.3    84  ILE84       0.0001
@<TRIPOS>BOND
     1    40    39    2
     2    43    42   ar
     3    38    39    1
     4    38    41    1
     5    38    37    1
     6    39    45   am
     7    42    41    1
     8    42    44   ar
     9    35    34    2
    10    51    50   ar
    11    23    22    2
    12    22    21    1
    13    28    29    1
    14    34    37   am
    15    34    33    1
    16    45    46    1
    17    46    47    1
    18    46    49    1
    19    20    21    1
    20    50    49    1
    21    50    52   ar
    22    29    30    1
    23    32    30   am
    24    32    33    1
    25    21    24    1
    26    30    31    2
    27    47    48    2
    28    33    36    1
    29    24    25    1
    30    26    25   ar
    31    15    14    2
    32    14    13    1
    33    25    27   ar
    34   112   111    2
    35   111   110    1
    36   115   113    1
    37    13    12    1
    38    13    16    1
    39    53    54    1
    40   110   113    1
    41   110   109    1
    42     3     4    2
    43     3     2    1
    44    16    17    1
    45   113   114    1
    46    59    57    1
    47    19    17    1
    48    54    55    1
    49    54    57    1
    50    66    64    1
    51     2     1    1
    52     2     5    1
    53    17    18    1
    54    55    56    2
    55    57    58    1
    56   114   116    1
    57    64    61    1
    58    64    65    1
    59     5     6    1
    60    71    70    2
    61    67    65    1
    62    61    60    1
    63    61    62    1
    64    68    62   am
    65    68    69    1
    66     6     7    1
    67    70    69    1
    68    70    72   am
    69    62    63    2
    70    93    94   ar
    71    93    91   ar
    72    94    92   ar
    73    73    72    1
    74    73    74    1
    75   107   106    1
    76   105   104    2
    77     7     8    1
    78   104   103    1
    79    91    89   ar
    80    83    81    1
    81    74    76   am
    82    74    75    2
    83    92    90   ar
    84    81    80    1
    85     8     9    2
    86    76    77    1
    87   106   103    1
    88   106   108    1
    89   103   102    1
    90    89    90   ar
    91    89    88    1
    92    80    77    1
    93    80    82    1
    94     9    10    1
    95     9    11    1
    96    77    78    1
    97   102    97   am
    98    88    85    1
    99    85    84    1
   100    85    86    1
   101    78    79    2
   102    97    98    2
   103    97    96    1
   104    86    87    2
   105   101    95    1
   106   101   100    1
   107    95    96    1
   108    96    99    1
   109   100    99    1
