@<TRIPOS>MOLECULE
tmp/2q55B00.pdb
 137 129 0 0 0
SMALL
GASTEIGER

@<TRIPOS>ATOM
      1  N         19.5460   17.1100   15.0030 N.3     8  ARG8       -0.1245
      2  CA        18.7950   18.2870   15.3990 C.3     8  ARG8        0.1563
      3  C         17.7800   17.8950   16.4580 C.2     8  ARG8        0.2260
      4  O         17.0730   16.8990   16.2750 O.2     8  ARG8       -0.2867
      5  CB        18.0780   18.8900   14.2050 C.3     8  ARG8        0.0307
      6  CG        19.0140   19.5210   13.2020 C.3     8  ARG8        0.0489
      7  CD        18.2340   20.1870   12.0800 C.3     8  ARG8        0.2205
      8  NE        19.1150   20.8060   11.0940 N.pl3   8  ARG8       -0.0865
      9  CZ        18.7140   21.6670   10.1580 C.cat   8  ARG8        0.5346
     10  NH1       17.4380   22.0410   10.0620 N.pl3   8  ARG8        0.1354
     11  NH2       19.5920   22.1690    9.3090 N.pl3   8  ARG8        0.1354
     12  N         12.6460   22.9430   16.4980 N.3    23  LEU23      -0.1245
     13  CA        13.9160   22.8240   17.2120 C.3    23  LEU23       0.1561
     14  C         13.8450   23.3610   18.6340 C.2    23  LEU23       0.2260
     15  O         13.4270   24.4940   18.8440 O.2    23  LEU23      -0.2867
     16  CB        14.9940   23.6610   16.5270 C.3    23  LEU23       0.0270
     17  CG        15.7350   23.2000   15.3010 C.3    23  LEU23       0.0019
     18  CD1       16.6670   24.3350   14.8670 C.3    23  LEU23       0.0001
     19  CD2       16.5140   21.9390   15.6060 C.3    23  LEU23       0.0001
     20  N         15.8950   25.2150   20.8240 N.3    25  ASP25      -0.1239
     21  CA        16.9550   26.0790   20.3280 C.3    25  ASP25       0.1674
     22  C         17.4870   27.0450   21.4020 C.2    25  ASP25       0.2266
     23  O         16.9490   28.1450   21.6080 O.2    25  ASP25      -0.2867
     24  CB        16.4400   26.8590   19.1080 C.3    25  ASP25       0.1410
     25  CG        17.5590   27.6020   18.3570 C.2    25  ASP25       0.3668
     26  OD1       17.2790   28.1640   17.2880 O.co2  25  ASP25      -0.2456
     27  OD2       18.7130   27.5990   18.8180 O.co2  25  ASP25      -0.2456
     28  N         20.1130   28.8160   21.3370 N.3    27  GLY27      -0.1210
     29  CA        20.6710   30.0440   20.7480 C.3    27  GLY27       0.1956
     30  C         19.6340   31.0200   20.2050 C.2    27  GLY27       0.2612
     31  O         19.9900   32.0520   19.6320 O.2    27  GLY27      -0.2717
     32  N         18.3550   30.7040   20.4070 N.am   28  ALA28      -0.1965
     33  CA        17.2590   31.5790   20.0270 C.3    28  ALA28       0.1728
     34  C         16.6710   32.2570   21.2480 C.2    28  ALA28       0.2616
     35  O         16.1620   31.5840   22.1620 O.2    28  ALA28      -0.2715
     36  CB        16.1850   30.7940   19.3080 C.3    28  ALA28       0.0334
     37  N         16.7240   33.5900   21.2520 N.am   29  ASP29      -0.1957
     38  CA        16.0710   34.3900   22.2910 C.3    29  ASP29       0.1840
     39  C         14.5600   34.1610   22.2980 C.2    29  ASP29       0.2622
     40  O         13.9230   34.1210   23.3630 O.2    29  ASP29      -0.2715
     41  CB        16.2970   35.8760   22.0480 C.3    29  ASP29       0.1450
     42  CG        17.7440   36.2720   22.0780 C.2    29  ASP29       0.3671
     43  OD1       18.5770   35.5000   22.5800 O.co2  29  ASP29      -0.2456
     44  OD2       18.0380   37.3720   21.5840 O.co2  29  ASP29      -0.2456
     45  N         14.0000   34.0230   21.0990 N.am   30  ASP30      -0.1971
     46  CA        12.5580   34.0120   20.8920 C.3    30  ASP30       0.1709
     47  C         12.1310   32.7840   20.1060 C.2    30  ASP30       0.2293
     48  O         12.9550   32.1070   19.4910 O.2    30  ASP30      -0.2864
     49  CB        12.1350   35.2740   20.1420 C.3    30  ASP30       0.1436
     50  CG        12.4890   36.5430   20.8960 C.2    30  ASP30       0.3671
     51  OD1       12.1570   36.6500   22.1020 O.co2  30  ASP30      -0.2456
     52  OD2       13.1000   37.4400   20.2890 O.co2  30  ASP30      -0.2456
     53  N         10.2510   31.3020   17.0160 N.3    32  VAL32      -0.1245
     54  CA         9.9940   31.7310   15.6640 C.3    32  VAL32       0.1561
     55  C          9.3750   30.5800   14.8840 C.2    32  VAL32       0.2260
     56  O         10.0090   29.5530   14.6440 O.2    32  VAL32      -0.2867
     57  CB        11.2660   32.2230   14.9570 C.3    32  VAL32       0.0252
     58  CG1       10.9030   32.8050   13.6000 C.3    32  VAL32       0.0019
     59  CG2       12.0040   33.2790   15.8260 C.3    32  VAL32       0.0019
     60  N          7.7090   43.1830   13.4840 N.3    45  LYS45      -0.1231
     61  CA         9.0340   43.1980   14.0770 C.3    45  LYS45       0.1693
     62  C         10.0500   42.6840   13.0550 C.2    45  LYS45       0.2592
     63  O          9.7020   41.9290   12.1420 O.2    45  LYS45      -0.2718
     64  CB         9.0180   42.2860   15.3020 C.3    45  LYS45       0.0285
     65  CG        10.2660   42.2940   16.1500 C.3    45  LYS45       0.0035
     66  CD        10.0370   41.4780   17.4320 C.3    45  LYS45       0.0206
     67  CE        11.2360   41.4970   18.3350 C.3    45  LYS45       0.1093
     68  NZ        10.8530   41.0730   19.7030 N.3    45  LYS45      -0.1314
     69  N         11.3010   43.0980   13.2050 N.am   46  MET46      -0.1965
     70  CA        12.3940   42.5290   12.4220 C.3    46  MET46       0.1736
     71  C         13.2680   41.7460   13.3620 C.2    46  MET46       0.2616
     72  O         13.5930   42.2330   14.4450 O.2    46  MET46      -0.2715
     73  CB        13.2550   43.6280   11.8290 C.3    46  MET46       0.0427
     74  CG        12.5210   44.6220   11.0480 C.3    46  MET46       0.0599
     75  SD        11.9160   43.8430    9.5750 S.3    46  MET46      -0.1393
     76  CE        11.9650   45.2930    8.5190 C.3    46  MET46       0.0692
     77  N         13.6600   40.5490   12.9580 N.am   47  ILE47      -0.1963
     78  CA        14.5850   39.7650   13.7440 C.3    47  ILE47       0.1727
     79  C         15.7280   39.3040   12.8650 C.2    47  ILE47       0.2617
     80  O         15.5420   39.0170   11.6740 O.2    47  ILE47      -0.2715
     81  CB        13.8930   38.5710   14.4440 C.3    47  ILE47       0.0290
     82  CG1       13.2930   37.5890   13.4260 C.3    47  ILE47       0.0022
     83  CG2       12.8310   39.0870   15.3980 C.3    47  ILE47       0.0023
     84  CD1       13.0410   36.2170   14.0150 C.3    47  ILE47       0.0001
     85  N         16.9110   39.2590   13.4650 N.am   48  GLY48      -0.1940
     86  CA        18.1310   38.9790   12.7460 C.3    48  GLY48       0.2014
     87  C         18.6480   37.5880   13.0290 C.2    48  GLY48       0.2639
     88  O         18.7920   37.1830   14.1900 O.2    48  GLY48      -0.2714
     89  N         18.9370   36.8630   11.9630 N.am   49  GLY49      -0.1939
     90  CA        19.5830   35.5710   12.0640 C.3    49  GLY49       0.2014
     91  C         20.9270   35.5810   11.3710 C.2    49  GLY49       0.2638
     92  O         21.5310   36.6410   11.1300 O.2    49  GLY49      -0.2714
     93  N         21.3750   34.3820   11.0180 N.am   50  ILE50      -0.1977
     94  CA        22.6970   34.1940   10.4820 C.3    50  ILE50       0.1596
     95  C         22.9480   35.0270    9.2310 C.2    50  ILE50       0.2287
     96  O         24.0280   35.6170    9.0980 O.2    50  ILE50      -0.2864
     97  CB        22.9860   32.6810   10.2080 C.3    50  ILE50       0.0276
     98  CG1       24.4750   32.4350   10.0350 C.3    50  ILE50       0.0022
     99  CG2       22.2260   32.1590    8.9950 C.3    50  ILE50       0.0022
    100  CD1       25.2460   32.4990   11.3300 C.3    50  ILE50       0.0001
    101  N          6.7560   34.5350   17.4260 N.3    76  LEU76      -0.1245
    102  CA         7.0360   35.3510   16.2590 C.3    76  LEU76       0.1561
    103  C          6.7600   34.5020   15.0300 C.2    76  LEU76       0.2260
    104  O          7.3030   33.4010   14.9070 O.2    76  LEU76      -0.2867
    105  CB         8.4950   35.8100   16.2770 C.3    76  LEU76       0.0270
    106  CG         8.9860   36.3920   17.5980 C.3    76  LEU76       0.0019
    107  CD1       10.4370   36.8110   17.4440 C.3    76  LEU76       0.0001
    108  CD2        8.1080   37.5890   18.0310 C.3    76  LEU76       0.0001
    109  N         10.4420   31.6740    8.2540 N.3    80  THR80      -0.1204
    110  CA        11.5670   30.8780    8.7050 C.3    80  THR80       0.1979
    111  C         11.4770   29.5020    8.0350 C.2    80  THR80       0.2460
    112  O         10.3800   28.9760    7.8770 O.2    80  THR80      -0.2732
    113  CB        11.6000   30.7400   10.2530 C.3    80  THR80       0.1783
    114  OG1       12.6670   29.8680   10.6250 O.3    80  THR80      -0.2211
    115  CG2       10.2780   30.1910   10.8200 C.3    80  THR80       0.0376
    116  N         12.6270   28.9260    7.6250 N.am   81  PRO81      -0.2717
    117  CA        12.6900   27.5510    7.1120 C.3    81  PRO81       0.1535
    118  C         12.4150   26.4720    8.1520 C.2    81  PRO81       0.2598
    119  O         12.0420   25.3430    7.8020 O.2    81  PRO81      -0.2715
    120  CB        14.1530   27.4110    6.6620 C.3    81  PRO81       0.0310
    121  CG        14.6830   28.8020    6.5730 C.3    81  PRO81       0.0237
    122  CD        13.9490   29.5760    7.5970 C.3    81  PRO81       0.0939
    123  N         12.6190   26.8180    9.4180 N.am   82  VAL82      -0.1978
    124  CA        12.5140   25.8700   10.5120 C.3    82  VAL82       0.1596
    125  C         11.8050   26.5200   11.6950 C.2    82  VAL82       0.2287
    126  O         12.0220   27.7010   11.9990 O.2    82  VAL82      -0.2864
    127  CB        13.9170   25.3490   10.9250 C.3    82  VAL82       0.0276
    128  CG1       14.8350   26.4940   11.3560 C.3    82  VAL82       0.0022
    129  CG2       13.8140   24.2980   12.0230 C.3    82  VAL82       0.0022
    130  N         11.3750   27.2490   15.4480 N.3    84  ILE84      -0.1245
    131  CA        12.3770   27.4550   16.4820 C.3    84  ILE84       0.1561
    132  C         11.6750   27.6610   17.8210 C.2    84  ILE84       0.2260
    133  O         10.8740   28.5900   17.9530 O.2    84  ILE84      -0.2867
    134  CB        13.2110   28.7160   16.1530 C.3    84  ILE84       0.0252
    135  CG1       14.0610   28.4690   14.9030 C.3    84  ILE84       0.0019
    136  CG2       14.0790   29.1200   17.3180 C.3    84  ILE84       0.0019
    137  CD1       14.8470   29.7150   14.4280 C.3    84  ILE84       0.0001
@<TRIPOS>BOND
     1   121   120    1
     2   121   122    1
     3   120   117    1
     4   117   116    1
     5   117   118    1
     6   122   116    1
     7   116   111   am
     8   119   118    2
     9   112   111    2
    10   111   110    1
    11   118   123   am
    12   109   110    1
    13    76    75    1
    14   110   113    1
    15    99    97    1
    16    96    95    2
    17    95    94    1
    18    11     9    1
    19   123   124    1
    20    75    74    1
    21    98    97    1
    22    98   100    1
    23    10     9    1
    24     9     8    2
    25    97    94    1
    26   113   114    1
    27   113   115    1
    28    94    93    1
    29   124   127    1
    30   124   125    1
    31   127   128    1
    32   127   129    1
    33    93    91   am
    34    74    73    1
    35     8     7    1
    36    92    91    2
    37    91    90    1
    38    80    79    2
    39   125   126    2
    40    73    70    1
    41    89    90    1
    42    89    87   am
    43     7     6    1
    44    63    62    2
    45    70    69    1
    46    70    71    1
    47    86    87    1
    48    86    85    1
    49    79    85   am
    50    79    78    1
    51    77    71   am
    52    77    78    1
    53    87    88    2
    54    62    69   am
    55    62    61    1
    56     6     5    1
    57    71    72    2
    58    82    84    1
    59    82    81    1
    60    60    61    1
    61    58    57    1
    62    78    81    1
    63    61    64    1
    64     5     2    1
    65   137   135    1
    66    81    83    1
    67    56    55    2
    68    18    17    1
    69    55    54    1
    70   135   134    1
    71   104   103    2
    72    57    54    1
    73    57    59    1
    74     1     2    1
    75   103   102    1
    76    17    19    1
    77    17    16    1
    78    64    65    1
    79     2     3    1
    80   130   131    1
    81    54    53    1
    82    65    66    1
    83   134   131    1
    84   134   136    1
    85   102   105    1
    86   102   101    1
    87     4     3    2
    88   105   106    1
    89   131   132    1
    90    12    13    1
    91    16    13    1
    92    13    14    1
    93    26    25   ar
    94    66    67    1
    95   107   106    1
    96   106   108    1
    97   132   133    2
    98    67    68    1
    99    25    27   ar
   100    25    24    1
   101    14    15    2
   102    24    21    1
   103    36    33    1
   104    48    47    2
   105    31    30    2
   106    33    32    1
   107    33    34    1
   108    47    46    1
   109    49    46    1
   110    49    50    1
   111    30    32   am
   112    30    29    1
   113    52    50   ar
   114    21    20    1
   115    21    22    1
   116    29    28    1
   117    46    45    1
   118    50    51   ar
   119    45    39   am
   120    34    37   am
   121    34    35    2
   122    37    38    1
   123    22    23    2
   124    44    42   ar
   125    41    42    1
   126    41    38    1
   127    42    43   ar
   128    38    39    1
   129    39    40    2
