@<TRIPOS>MOLECULE
tmp/2q58A00.pdb
 140 128 0 0 0
SMALL
GASTEIGER

@<TRIPOS>ATOM
      1  N          6.0730   20.9580   60.9120 N.3    89  ILE89      -0.1231
      2  CA         5.7460   21.4620   59.5750 C.3    89  ILE89       0.1692
      3  C          4.3450   21.0160   59.1930 C.2    89  ILE89       0.2591
      4  O          3.4800   21.8010   58.7880 O.2    89  ILE89      -0.2718
      5  CB         6.8200   20.9940   58.5700 C.3    89  ILE89       0.0266
      6  CG1        8.1720   21.6890   58.7640 C.3    89  ILE89       0.0019
      7  CG2        6.3550   21.1440   57.1320 C.3    89  ILE89       0.0020
      8  CD1        9.2840   21.2680   57.8290 C.3    89  ILE89       0.0001
      9  N          4.0740   19.7160   59.3620 N.am   90  LEU90      -0.1980
     10  CA         2.7860   19.1700   58.9190 C.3    90  LEU90       0.1596
     11  C          1.6530   19.3960   59.9060 C.2    90  LEU90       0.2287
     12  O          0.4760   19.2200   59.5580 O.2    90  LEU90      -0.2864
     13  CB         2.9730   17.6880   58.5820 C.3    90  LEU90       0.0297
     14  CG         3.9050   17.3960   57.3980 C.3    90  LEU90       0.0022
     15  CD1        4.1310   15.9000   57.2290 C.3    90  LEU90       0.0001
     16  CD2        3.3460   17.9920   56.1140 C.3    90  LEU90       0.0001
     17  N          0.7750   22.6550   58.2250 N.3    93  ASP93      -0.1239
     18  CA         0.1760   22.1830   56.9880 C.3    93  ASP93       0.1674
     19  C         -1.2500   21.7120   57.2120 C.2    93  ASP93       0.2266
     20  O         -2.1950   22.1920   56.5840 O.2    93  ASP93      -0.2867
     21  CB         1.0150   21.0400   56.3970 C.3    93  ASP93       0.1410
     22  CG         0.5420   20.5440   55.0400 C.2    93  ASP93       0.3668
     23  OD1        0.8010   21.2380   54.0300 O.co2  93  ASP93      -0.2456
     24  OD2       -0.0780   19.4590   54.9550 O.co2  93  ASP93      -0.2456
     25  N         -4.4140   23.4910   55.4230 N.3    97  ASP97      -0.1239
     26  CA        -5.1920   22.6970   54.4850 C.3    97  ASP97       0.1674
     27  C         -6.4150   22.0200   55.0870 C.2    97  ASP97       0.2266
     28  O         -6.9030   21.0710   54.4550 O.2    97  ASP97      -0.2867
     29  CB        -4.3200   21.5940   53.8890 C.3    97  ASP97       0.1410
     30  CG        -2.9830   22.0840   53.3770 C.2    97  ASP97       0.3668
     31  OD1       -2.8660   23.2980   53.0870 O.co2  97  ASP97      -0.2456
     32  OD2       -2.0550   21.2430   53.2630 O.co2  97  ASP97      -0.2456
     33  N         -3.3710   12.1950   59.5380 N.3   102  ARG102     -0.1245
     34  CA        -1.9350   12.1410   59.3210 C.3   102  ARG102      0.1563
     35  C         -1.2610   11.2080   60.3230 C.2   102  ARG102      0.2260
     36  O         -1.6050   11.1950   61.5080 O.2   102  ARG102     -0.2867
     37  CB        -1.3020   13.5420   59.4360 C.3   102  ARG102      0.0307
     38  CG         0.1000   13.5730   58.8400 C.3   102  ARG102      0.0489
     39  CD         0.5900   14.9900   58.6130 C.3   102  ARG102      0.2205
     40  NE        -0.0450   15.6740   57.4940 N.pl3 102  ARG102     -0.0865
     41  CZ         0.1500   15.4390   56.2050 C.cat 102  ARG102      0.5346
     42  NH1       -0.5030   16.1520   55.2980 N.pl3 102  ARG102      0.1354
     43  NH2        0.9860   14.5010   55.7900 N.pl3 102  ARG102      0.1354
     44  N          5.6940   27.0590   50.9860 N.3   162  GLN162     -0.1245
     45  CA         4.3690   26.9090   51.5740 C.3   162  GLN162      0.1566
     46  C          3.5420   28.1570   51.3090 C.2   162  GLN162      0.2260
     47  O          2.3180   28.1340   51.3380 O.2   162  GLN162     -0.2867
     48  CB         4.4580   26.6120   53.0720 C.3   162  GLN162      0.0367
     49  CG         4.7700   25.1560   53.3960 C.3   162  GLN162      0.0905
     50  CD         3.5960   24.2470   53.1090 C.2   162  GLN162      0.2608
     51  OE1        3.3970   23.8580   51.9620 O.2   162  GLN162     -0.2717
     52  NE2        2.8250   23.9160   54.1270 N.am  162  GLN162     -0.0878
     53  N          2.2120   27.8550   47.8350 N.3   165  ASP165     -0.1239
     54  CA         1.1200   26.8960   47.9130 C.3   165  ASP165      0.1674
     55  C         -0.1630   27.5750   48.3400 C.2   165  ASP165      0.2266
     56  O         -1.2710   27.2400   47.9240 O.2   165  ASP165     -0.2867
     57  CB         1.5170   25.7840   48.8910 C.3   165  ASP165      0.1410
     58  CG         0.4950   24.6610   48.8740 C.2   165  ASP165      0.3668
     59  OD1       -0.5770   24.8660   49.4810 O.co2 165  ASP165     -0.2456
     60  OD2        0.7780   23.6110   48.2580 O.co2 165  ASP165     -0.2456
     61  N          8.5800   24.0960   49.0130 N.3   188  LYS188     -0.1231
     62  CA         7.7300   23.5900   50.0760 C.3   188  LYS188      0.1693
     63  C          7.9030   22.1330   50.4700 C.2   188  LYS188      0.2592
     64  O          7.1970   21.6990   51.3810 O.2   188  LYS188     -0.2718
     65  CB         6.2680   23.8070   49.6550 C.3   188  LYS188      0.0285
     66  CG         5.7690   22.7320   48.7040 C.3   188  LYS188      0.0035
     67  CD         4.2600   22.7290   48.5630 C.3   188  LYS188      0.0206
     68  CE         3.7480   21.3780   48.0670 C.3   188  LYS188      0.1093
     69  NZ         2.3110   21.4800   47.6760 N.3   188  LYS188     -0.1314
     70  N          8.7950   21.4060   49.8050 N.am  189  THR189     -0.1953
     71  CA         8.8100   19.9540   49.9300 C.3   189  THR189      0.1897
     72  C         10.2090   19.3510   49.9420 C.2   189  THR189      0.2313
     73  O         10.5120   18.5180   50.7960 O.2   189  THR189     -0.2863
     74  CB         8.0200   19.3140   48.7660 C.3   189  THR189      0.1794
     75  OG1        6.6200   19.3490   49.0710 O.3   189  THR189     -0.2208
     76  CG2        8.4480   17.8670   48.5890 C.3   189  THR189      0.0378
     77  N         13.3450   20.5990   53.1470 N.3   192  TYR192     -0.1241
     78  CA        13.3220   19.9510   54.4530 C.3   192  TYR192      0.1605
     79  C         13.2770   18.4330   54.3150 C.2   192  TYR192      0.2264
     80  O         13.7600   17.7060   55.1830 O.2   192  TYR192     -0.2867
     81  CB        12.1280   20.4400   55.2740 C.3   192  TYR192      0.0534
     82  CG        10.8420   19.6970   54.9880 C.ar  192  TYR192     -0.0201
     83  CD1        9.9660   20.1390   54.0060 C.ar  192  TYR192     -0.0009
     84  CD2       10.5050   18.5540   55.7000 C.ar  192  TYR192     -0.0009
     85  CE1        8.7900   19.4640   53.7400 C.ar  192  TYR192      0.0417
     86  CE2        9.3310   17.8720   55.4420 C.ar  192  TYR192      0.0417
     87  CZ         8.4770   18.3310   54.4610 C.ar  192  TYR192      0.1957
     88  OH         7.3080   17.6550   54.2010 O.3   192  TYR192     -0.2866
     89  N          6.4300   14.8390   46.0870 N.3   229  GLN229     -0.1245
     90  CA         5.3010   15.7610   46.0250 C.3   229  GLN229      0.1566
     91  C          4.3440   15.3680   44.9050 C.2   229  GLN229      0.2260
     92  O          3.1280   15.4970   45.0250 O.2   229  GLN229     -0.2867
     93  CB         5.7830   17.1970   45.8280 C.3   229  GLN229      0.0367
     94  CG         4.7720   18.2600   46.2310 C.3   229  GLN229      0.0905
     95  CD         3.8450   17.8050   47.3410 C.2   229  GLN229      0.2608
     96  OE1        2.6270   17.7530   47.1670 O.2   229  GLN229     -0.2717
     97  NE2        4.4080   17.4750   48.4970 N.am  229  GLN229     -0.0878
     98  N          2.3430   12.3680   46.0200 N.3   232  ASN232     -0.1225
     99  CA         1.3690   12.7330   47.0430 C.3   232  ASN232      0.1785
    100  C          0.1530   13.4470   46.4580 C.2   232  ASN232      0.2597
    101  O         -0.9570   13.3330   46.9770 O.2   232  ASN232     -0.2718
    102  CB         2.0220   13.6030   48.1190 C.3   232  ASN232      0.1169
    103  CG         1.0150   14.4390   48.8830 C.2   232  ASN232      0.2627
    104  OD1        0.6570   15.5390   48.4620 O.2   232  ASN232     -0.2716
    105  ND2        0.5520   13.9200   50.0140 N.am  232  ASN232     -0.0877
    106  N          0.3750   14.1830   45.3740 N.am  233  ASP233     -0.1974
    107  CA        -0.6830   14.9310   44.7170 C.3   233  ASP233      0.1709
    108  C         -1.6350   14.0400   43.9300 C.2   233  ASP233      0.2293
    109  O         -2.8450   14.2480   43.9000 O.2   233  ASP233     -0.2864
    110  CB        -0.0340   15.9520   43.7770 C.3   233  ASP233      0.1436
    111  CG         0.6410   17.0920   44.5140 C.2   233  ASP233      0.3671
    112  OD1        0.0860   17.5200   45.5660 O.co2 233  ASP233     -0.2456
    113  OD2        1.7220   17.5570   44.0510 O.co2 233  ASP233     -0.2456
    114  N         -4.0490   11.9440   45.8740 N.3   236  ASP236     -0.1239
    115  CA        -5.1390   12.7610   46.3860 C.3   236  ASP236      0.1674
    116  C         -6.2690   12.7910   45.3660 C.2   236  ASP236      0.2266
    117  O         -7.4480   12.8150   45.7130 O.2   236  ASP236     -0.2867
    118  CB        -4.6930   14.1970   46.6730 C.3   236  ASP236      0.1410
    119  CG        -5.8840   15.1320   46.7320 C.2   236  ASP236      0.3668
    120  OD1       -6.4280   15.4790   45.6650 O.co2 236  ASP236     -0.2456
    121  OD2       -6.2810   15.5060   47.8510 O.co2 236  ASP236     -0.2456
    122  N         -8.9550   18.6770   47.5490 N.3   246  ASP246     -0.1239
    123  CA        -7.7720   19.4010   47.0980 C.3   246  ASP246      0.1674
    124  C         -8.1380   20.4710   46.0760 C.2   246  ASP246      0.2266
    125  O         -7.6900   21.6140   46.1720 O.2   246  ASP246     -0.2867
    126  CB        -6.7460   18.4340   46.5030 C.3   246  ASP246      0.1410
    127  CG        -5.6320   19.1490   45.7640 C.2   246  ASP246      0.3668
    128  OD1       -5.8050   19.4390   44.5620 O.co2 246  ASP246     -0.2456
    129  OD2       -4.5840   19.4210   46.3860 O.co2 246  ASP246     -0.2456
    130  N        -10.2560   23.3820   47.1210 N.3   249  ARG249     -0.1245
    131  CA        -9.2420   24.4300   47.1560 C.3   249  ARG249      0.1563
    132  C         -8.7230   24.7420   45.7570 C.2   249  ARG249      0.2260
    133  O         -8.8040   23.9100   44.8540 O.2   249  ARG249     -0.2867
    134  CB        -8.0840   24.0240   48.0690 C.3   249  ARG249      0.0307
    135  CG        -8.4120   24.0820   49.5520 C.3   249  ARG249      0.0489
    136  CD        -8.5590   22.6870   50.1400 C.3   249  ARG249      0.2205
    137  NE        -7.2810   22.1500   50.5980 N.pl3 249  ARG249     -0.0865
    138  CZ        -7.0900   20.8860   50.9610 C.cat 249  ARG249      0.5346
    139  NH1       -8.0960   20.0230   50.9220 N.pl3 249  ARG249      0.1354
    140  NH2       -5.8930   20.4840   51.3650 N.pl3 249  ARG249      0.1354
@<TRIPOS>BOND
     1   110   111    1
     2   110   107    1
     3   109   108    2
     4   108   107    1
     5   113   111   ar
     6   111   112   ar
     7   128   127   ar
     8   107   106    1
     9   133   132    2
    10    91    92    2
    11    91    90    1
    12   116   117    2
    13   116   115    1
    14   106   100   am
    15   120   119   ar
    16   132   131    1
    17   127   129   ar
    18   127   126    1
    19    93    90    1
    20    93    94    1
    21   114   115    1
    22    98    99    1
    23    90    89    1
    24   124   125    2
    25   124   123    1
    26    94    95    1
    27   115   118    1
    28   100   101    2
    29   100    99    1
    30   126   123    1
    31   118   119    1
    32   119   121   ar
    33    99   102    1
    34   123   122    1
    35   130   131    1
    36   131   134    1
    37    96    95    2
    38    95    97   am
    39    69    68    1
    40    53    54    1
    41    54    55    1
    42    54    57    1
    43    56    55    2
    44    68    67    1
    45   134   135    1
    46   102   103    1
    47    60    58   ar
    48   104   103    2
    49    67    66    1
    50    76    74    1
    51    66    65    1
    52    74    75    1
    53    74    71    1
    54    58    57    1
    55    58    59   ar
    56   103   105   am
    57    61    62    1
    58   135   136    1
    59    65    62    1
    60    70    71    1
    61    70    63   am
    62    71    72    1
    63    72    73    2
    64    62    63    1
    65   136   137    1
    66    63    64    2
    67   137   138    2
    68   139   138    1
    69   138   140    1
    70    44    45    1
    71    46    47    2
    72    46    45    1
    73    45    48    1
    74    51    50    2
    75    48    49    1
    76    31    30   ar
    77    50    49    1
    78    50    52   am
    79    77    78    1
    80    32    30   ar
    81    30    29    1
    82    85    83   ar
    83    85    87   ar
    84    29    26    1
    85    83    82   ar
    86    23    22   ar
    87    88    87    1
    88    79    78    1
    89    79    80    2
    90    78    81    1
    91    28    27    2
    92    87    86   ar
    93    26    27    1
    94    26    25    1
    95    24    22   ar
    96    82    81    1
    97    82    84   ar
    98    22    21    1
    99    42    41    1
   100    86    84   ar
   101    43    41    1
   102    16    14    1
   103    41    40    2
   104    21    18    1
   105    20    19    2
   106    18    19    1
   107    18    17    1
   108     7     5    1
   109    15    14    1
   110    14    13    1
   111    40    39    1
   112     8     6    1
   113     5     6    1
   114     5     2    1
   115    13    10    1
   116    39    38    1
   117     4     3    2
   118    38    37    1
   119    10     9    1
   120    10    11    1
   121     3     9   am
   122     3     2    1
   123    34    37    1
   124    34    33    1
   125    34    35    1
   126    12    11    2
   127     2     1    1
   128    35    36    2
