@<TRIPOS>MOLECULE
tmp/2q5jA00.pdb
 70 67 0 0 0
SMALL
GASTEIGER

@<TRIPOS>ATOM
      1  N        -33.4680   21.2070  -32.3730 N.3    22  ILE22      -0.1231
      2  CA       -33.8660   22.2350  -31.4120 C.3    22  ILE22       0.1678
      3  C        -33.3300   23.5510  -31.9460 C.2    22  ILE22       0.2434
      4  O        -32.1160   23.7490  -32.0370 O.2    22  ILE22      -0.2733
      5  CB       -33.2730   22.0210  -30.0170 C.3    22  ILE22       0.0265
      6  CG1      -33.9070   20.8050  -29.3480 C.3    22  ILE22       0.0019
      7  CG2      -33.5330   23.2480  -29.1700 C.3    22  ILE22       0.0020
      8  CD1      -33.3800   20.5400  -27.9540 C.3    22  ILE22       0.0001
      9  N        -34.2360   24.4790  -32.2840 N.am   23  PRO23      -0.2718
     10  CA       -33.9780   25.8140  -32.8320 C.3    23  PRO23       0.1535
     11  C        -33.2180   26.8370  -31.9920 C.2    23  PRO23       0.2599
     12  O        -32.8240   26.5940  -30.8560 O.2    23  PRO23      -0.2715
     13  CB       -35.3740   26.3080  -33.1890 C.3    23  PRO23       0.0310
     14  CG       -36.2030   25.7160  -32.0970 C.3    23  PRO23       0.0237
     15  CD       -35.6780   24.2950  -32.0370 C.3    23  PRO23       0.0939
     16  N        -33.0310   27.9960  -32.6070 N.am   24  GLY24      -0.1941
     17  CA       -32.3310   29.1060  -32.0010 C.3    24  GLY24       0.2014
     18  C        -32.2840   30.1420  -33.0990 C.2    24  GLY24       0.2638
     19  O        -32.5510   29.8130  -34.2520 O.2    24  GLY24      -0.2714
     20  N        -31.9490   31.3790  -32.7590 N.am   25  ASP25      -0.1971
     21  CA       -31.8950   32.4560  -33.7440 C.3    25  ASP25       0.1709
     22  C        -31.5240   32.0330  -35.1690 C.2    25  ASP25       0.2293
     23  O        -32.3480   32.1070  -36.0780 O.2    25  ASP25      -0.2864
     24  CB       -30.9330   33.5330  -33.2570 C.3    25  ASP25       0.1436
     25  CG       -31.3390   34.0920  -31.9120 C.2    25  ASP25       0.3671
     26  OD1      -31.6180   33.2780  -31.0000 O.co2  25  ASP25      -0.2456
     27  OD2      -31.3800   35.3360  -31.7660 O.co2  25  ASP25      -0.2456
     28  N        -33.5920   18.7710  -24.6540 N.3    47  HIS47      -0.1226
     29  CA       -32.1900   19.1200  -24.4890 C.3    47  HIS47       0.1752
     30  C        -31.3880   18.5270  -25.6520 C.2    47  HIS47       0.2595
     31  O        -31.6410   17.3990  -26.0730 O.2    47  HIS47      -0.2718
     32  CB       -31.6880   18.5760  -23.1480 C.3    47  HIS47       0.0759
     33  CG       -30.6870   19.4570  -22.4650 C.ar   47  HIS47       0.0818
     34  ND1      -30.1120   19.1270  -21.2610 N.ar   47  HIS47      -0.2268
     35  CD2      -30.1500   20.6470  -22.8290 C.ar   47  HIS47       0.1154
     36  CE1      -29.2590   20.0750  -20.9080 C.ar   47  HIS47       0.1986
     37  NE2      -29.2630   21.0070  -21.8410 N.ar   47  HIS47      -0.2212
     38  N        -30.4310   19.2950  -26.1700 N.am   48  GLU48      -0.1979
     39  CA       -29.6020   18.8560  -27.2910 C.3    48  GLU48       0.1602
     40  C        -29.1120   17.4130  -27.2410 C.2    48  GLU48       0.2287
     41  O        -29.2600   16.6890  -28.2140 O.2    48  GLU48      -0.2864
     42  CB       -28.3950   19.7770  -27.4580 C.3    48  GLU48       0.0415
     43  CG       -28.6730   21.0960  -28.1700 C.3    48  GLU48       0.1163
     44  CD       -29.5230   22.0540  -27.3640 C.2    48  GLU48       0.3649
     45  OE1      -29.2620   22.2160  -26.1520 O.co2  48  GLU48      -0.2457
     46  OE2      -30.4440   22.6570  -27.9520 O.co2  48  GLU48      -0.2457
     47  N        -28.5960   24.7440  -33.4340 N.3    71  THR71      -0.1218
     48  CA       -28.3620   26.1530  -33.6930 C.3    71  THR71       0.1862
     49  C        -26.9230   26.4350  -33.2860 C.2    71  THR71       0.2287
     50  O        -26.3230   25.6620  -32.5440 O.2    71  THR71      -0.2866
     51  CB       -29.3240   27.0420  -32.8690 C.3    71  THR71       0.1770
     52  OG1      -28.9510   28.4200  -33.0110 O.3    71  THR71      -0.2211
     53  CG2      -29.2970   26.6450  -31.3990 C.3    71  THR71       0.0375
     54  N        -24.0450   27.5730  -28.1410 N.3    74  ALA74      -0.1231
     55  CA       -24.5150   26.7570  -27.0350 C.3    74  ALA74       0.1694
     56  C        -25.2490   25.5520  -27.5710 C.2    74  ALA74       0.2592
     57  O        -25.0310   24.4320  -27.1270 O.2    74  ALA74      -0.2718
     58  CB       -25.4230   27.5650  -26.1510 C.3    74  ALA74       0.0304
     59  N        -26.1150   25.7850  -28.5440 N.am   75  GLY75      -0.1957
     60  CA       -26.8640   24.6870  -29.1290 C.3    75  GLY75       0.1869
     61  C        -25.9790   23.5750  -29.6710 C.2    75  GLY75       0.2309
     62  O        -26.0570   22.4300  -29.2310 O.2    75  GLY75      -0.2863
     63  N        -23.6100   21.9800  -26.7330 N.3    78  ASN78      -0.1240
     64  CA       -24.3400   21.1370  -25.7930 C.3    78  ASN78       0.1653
     65  C        -24.7700   19.7960  -26.3980 C.2    78  ASN78       0.2266
     66  O        -25.5100   19.0410  -25.7660 O.2    78  ASN78      -0.2867
     67  CB       -25.5650   21.8930  -25.2820 C.3    78  ASN78       0.1155
     68  CG       -26.2230   21.2120  -24.1060 C.2    78  ASN78       0.2627
     69  OD1      -25.6620   21.1580  -23.0080 O.2    78  ASN78      -0.2716
     70  ND2      -27.4200   20.6870  -24.3250 N.am   78  ASN78      -0.0877
@<TRIPOS>BOND
     1    23    22    2
     2    22    21    1
     3    19    18    2
     4    21    24    1
     5    21    20    1
     6    48    47    1
     7    48    49    1
     8    48    51    1
     9    49    50    2
    10    24    25    1
    11    13    10    1
    12    13    14    1
    13    18    20   am
    14    18    17    1
    15    52    51    1
    16    51    53    1
    17    10     9    1
    18    10    11    1
    19    16    17    1
    20    16    11   am
    21     1     2    1
    22     9    15    1
    23     9     3   am
    24    14    15    1
    25     4     3    2
    26    11    12    2
    27     3     2    1
    28    25    27   ar
    29    25    26   ar
    30     2     5    1
    31     5     6    1
    32     5     7    1
    33    61    62    2
    34    61    60    1
    35     6     8    1
    36    60    59    1
    37    59    56   am
    38    41    40    2
    39    43    42    1
    40    43    44    1
    41    54    55    1
    42    46    44   ar
    43    56    57    2
    44    56    55    1
    45    42    39    1
    46    44    45   ar
    47    39    40    1
    48    39    38    1
    49    55    58    1
    50    63    64    1
    51    65    64    1
    52    65    66    2
    53    38    30   am
    54    31    30    2
    55    64    67    1
    56    30    29    1
    57    67    68    1
    58    28    29    1
    59    29    32    1
    60    70    68   am
    61    68    69    2
    62    32    33    1
    63    35    33   ar
    64    35    37   ar
    65    33    34   ar
    66    37    36   ar
    67    34    36   ar
