@<TRIPOS>MOLECULE
tmp/2q5jA01.pdb
 144 139 0 0 0
SMALL
GASTEIGER

@<TRIPOS>ATOM
      1  N        -21.2210   15.6990  -27.2440 N.3    81  ASN81      -0.1240
      2  CA       -21.1510   14.3670  -26.6700 C.3    81  ASN81       0.1653
      3  C        -21.8790   13.2970  -27.4980 C.2    81  ASN81       0.2266
      4  O        -21.2830   12.2950  -27.8990 O.2    81  ASN81      -0.2867
      5  CB       -21.6900   14.4040  -25.2400 C.3    81  ASN81       0.1155
      6  CG       -21.6500   13.0460  -24.5630 C.2    81  ASN81       0.2627
      7  OD1      -20.6720   12.2970  -24.6720 O.2    81  ASN81      -0.2716
      8  ND2      -22.7200   12.7260  -23.8420 N.am   81  ASN81      -0.0877
      9  N        -26.2570    3.3150  -20.1390 N.3   365  MET365     -0.1230
     10  CA       -25.0950    2.6910  -19.5170 C.3   365  MET365      0.1702
     11  C        -25.4320    2.3790  -18.0700 C.2   365  MET365      0.2593
     12  O        -26.2670    3.0480  -17.4460 O.2   365  MET365     -0.2718
     13  CB       -23.8820    3.6160  -19.5640 C.3   365  MET365      0.0401
     14  CG       -22.5950    2.9730  -19.0740 C.3   365  MET365      0.0596
     15  SD       -22.1760    1.4930  -20.0090 S.3   365  MET365     -0.1393
     16  CE       -20.5620    1.1550  -19.3510 C.3   365  MET365      0.0692
     17  N        -24.7700    1.3660  -17.5370 N.am  366  GLY366     -0.1942
     18  CA       -25.0360    0.9680  -16.1780 C.3   366  GLY366      0.2014
     19  C        -25.3890   -0.4950  -16.2540 C.2   366  GLY366      0.2639
     20  O        -25.3310   -1.0720  -17.3400 O.2   366  GLY366     -0.2714
     21  N        -25.7770   -1.0960  -15.1340 N.am  367  ASP367     -0.1957
     22  CA       -26.0870   -2.5170  -15.1330 C.3   367  ASP367      0.1840
     23  C        -27.2600   -2.8690  -16.0340 C.2   367  ASP367      0.2622
     24  O        -27.4200   -4.0250  -16.4320 O.2   367  ASP367     -0.2715
     25  CB       -26.3490   -2.9980  -13.7050 C.3   367  ASP367      0.1450
     26  CG       -26.1460   -4.5030  -13.5470 C.2   367  ASP367      0.3671
     27  OD1      -25.1970   -5.0460  -14.1580 O.co2 367  ASP367     -0.2456
     28  OD2      -26.9270   -5.1370  -12.8010 O.co2 367  ASP367     -0.2456
     29  N        -28.0690   -1.8700  -16.3680 N.am  368  CYS368     -0.1968
     30  CA       -29.2220   -2.0950  -17.2230 C.3   368  CYS368      0.1712
     31  C        -28.8190   -2.7190  -18.5500 C.2   368  CYS368      0.2296
     32  O        -29.5700   -3.5100  -19.1220 O.2   368  CYS368     -0.2864
     33  CB       -29.9510   -0.7800  -17.4790 C.3   368  CYS368      0.0983
     34  SG       -29.0170    0.4190  -18.4330 S.3   368  CYS368     -0.0798
     35  N        -19.6050    3.9130  -24.0240 N.3   387  ALA387     -0.1231
     36  CA       -20.0110    3.8400  -22.6220 C.3   387  ALA387      0.1694
     37  C        -20.3580    5.1890  -22.0120 C.2   387  ALA387      0.2593
     38  O        -19.8540    5.5440  -20.9410 O.2   387  ALA387     -0.2718
     39  CB       -18.9140    3.1710  -21.8030 C.3   387  ALA387      0.0304
     40  N        -21.2220    5.9380  -22.6850 N.am  388  GLY388     -0.1942
     41  CA       -21.6000    7.2420  -22.1780 C.3   388  GLY388      0.2014
     42  C        -23.0550    7.2200  -21.7980 C.2   388  GLY388      0.2638
     43  O        -23.8780    6.7310  -22.5620 O.2   388  GLY388     -0.2714
     44  N        -23.3790    7.7550  -20.6280 N.am  389  MET389     -0.1976
     45  CA       -24.7590    7.7650  -20.1560 C.3   389  MET389      0.1605
     46  C        -25.6880    8.7760  -20.8220 C.2   389  MET389      0.2287
     47  O        -25.2530    9.8150  -21.3280 O.2   389  MET389     -0.2864
     48  CB       -24.7650    7.9800  -18.6540 C.3   389  MET389      0.0413
     49  CG       -24.1570    6.8290  -17.8970 C.3   389  MET389      0.0598
     50  SD       -23.6600    7.3290  -16.2690 S.3   389  MET389     -0.1393
     51  CE       -25.2020    7.9120  -15.6350 C.3   389  MET389      0.0692
     52  N        -30.8730    3.0910  -15.8990 N.3   413  GLY413     -0.1210
     53  CA       -30.5860    3.1020  -14.4780 C.3   413  GLY413      0.1956
     54  C        -31.0730    4.4090  -13.9010 C.2   413  GLY413      0.2612
     55  O        -31.3860    5.3220  -14.6540 O.2   413  GLY413     -0.2717
     56  N        -31.1570    4.5180  -12.5810 N.am  414  ASP414     -0.1959
     57  CA       -31.6140    5.7680  -11.9970 C.3   414  ASP414      0.1840
     58  C        -30.6140    6.8650  -12.3440 C.2   414  ASP414      0.2623
     59  O        -30.9850    7.9430  -12.8170 O.2   414  ASP414     -0.2715
     60  CB       -31.7880    5.6380  -10.4740 C.3   414  ASP414      0.1450
     61  CG       -30.5670    5.0780   -9.7760 C.2   414  ASP414      0.3671
     62  OD1      -30.1630    3.9380  -10.0840 O.co2 414  ASP414     -0.2456
     63  OD2      -30.0230    5.7810   -8.9040 O.co2 414  ASP414     -0.2456
     64  N        -29.3400    6.5710  -12.1370 N.am  415  GLY415     -0.1940
     65  CA       -28.3120    7.5400  -12.4450 C.3   415  GLY415      0.2014
     66  C        -28.4640    8.1660  -13.8210 C.2   415  GLY415      0.2638
     67  O        -28.3750    9.3860  -13.9670 O.2   415  GLY415     -0.2714
     68  N        -28.7020    7.3320  -14.8280 N.am  416  ALA416     -0.1977
     69  CA       -28.8450    7.8000  -16.2020 C.3   416  ALA416      0.1597
     70  C        -30.1390    8.5420  -16.4600 C.2   416  ALA416      0.2287
     71  O        -30.1420    9.5800  -17.1150 O.2   416  ALA416     -0.2864
     72  CB       -28.7410    6.6290  -17.1570 C.3   416  ALA416      0.0319
     73  N        -30.4390   12.2250  -16.2220 N.3   419  MET419     -0.1245
     74  CA       -29.8110   13.0360  -17.2660 C.3   419  MET419      0.1570
     75  C        -30.7020   13.2180  -18.4990 C.2   419  MET419      0.2261
     76  O        -30.9050   14.3360  -18.9840 O.2   419  MET419     -0.2867
     77  CB       -28.4930   12.3910  -17.7170 C.3   419  MET419      0.0387
     78  CG       -27.5510   11.9540  -16.6080 C.3   419  MET419      0.0595
     79  SD       -26.2240   10.8150  -17.1740 S.3   419  MET419     -0.1393
     80  CE       -24.7410   11.7010  -16.5390 C.3   419  MET419      0.0692
     81  N        -34.1060    1.1380  -13.4930 N.3   439  PHE439     -0.1241
     82  CA       -33.4180    0.3930  -12.4330 C.3   439  PHE439      0.1605
     83  C        -32.9990    1.3410  -11.3190 C.2   439  PHE439      0.2264
     84  O        -31.8870    1.8710  -11.3410 O.2   439  PHE439     -0.2867
     85  CB       -32.1590   -0.2950  -12.9710 C.3   439  PHE439      0.0534
     86  CG       -32.4260   -1.3760  -13.9760 C.ar  439  PHE439     -0.0203
     87  CD1      -31.6950   -2.5590  -13.9400 C.ar  439  PHE439     -0.0042
     88  CD2      -33.3870   -1.2150  -14.9690 C.ar  439  PHE439     -0.0042
     89  CE1      -31.9110   -3.5710  -14.8780 C.ar  439  PHE439     -0.0003
     90  CE2      -33.6130   -2.2230  -15.9180 C.ar  439  PHE439     -0.0003
     91  CZ       -32.8730   -3.4040  -15.8690 C.ar  439  PHE439     -0.0000
     92  N        -31.5860    1.7370   -8.0540 N.3   441  ASN441     -0.1240
     93  CA       -30.8470    1.1450   -6.9510 C.3   441  ASN441      0.1653
     94  C        -30.3560    2.2840   -6.0550 C.2   441  ASN441      0.2266
     95  O        -29.6580    2.0640   -5.0640 O.2   441  ASN441     -0.2867
     96  CB       -29.6720    0.2880   -7.4610 C.3   441  ASN441      0.1155
     97  CG       -28.9540    0.9020   -8.6580 C.2   441  ASN441      0.2627
     98  OD1      -28.7790    2.1200   -8.7440 O.2   441  ASN441     -0.2716
     99  ND2      -28.5180    0.0510   -9.5810 N.am  441  ASN441     -0.0877
    100  N        -28.1710    4.6460   -6.6380 N.3   443  SER443     -0.1202
    101  CA       -26.7270    4.7800   -6.6370 C.3   443  SER443      0.2020
    102  C        -26.1480    4.5600   -8.0170 C.2   443  SER443      0.2619
    103  O        -26.8260    4.0850   -8.9280 O.2   443  SER443     -0.2717
    104  CB       -26.1000    3.7590   -5.6890 C.3   443  SER443      0.2103
    105  OG       -26.0290    2.4790   -6.2990 O.3   443  SER443     -0.2182
    106  N        -24.8800    4.9220   -8.1580 N.am  444  TRP444     -0.1961
    107  CA       -24.1560    4.7240   -9.4010 C.3   444  TRP444      0.1771
    108  C        -23.4710    3.3760   -9.2220 C.2   444  TRP444      0.2620
    109  O        -22.2480    3.2730   -9.2440 O.2   444  TRP444     -0.2715
    110  CB       -23.1190    5.8290   -9.5930 C.3   444  TRP444      0.0590
    111  CG       -23.7120    7.1340   -9.9820 C.ar  444  TRP444      0.0006
    112  CD1      -24.7840    7.3360  -10.8020 C.ar  444  TRP444      0.0946
    113  CD2      -23.2210    8.4290   -9.6370 C.ar  444  TRP444      0.0152
    114  NE1      -24.9880    8.6820  -10.9940 N.ar  444  TRP444     -0.2442
    115  CE2      -24.0410    9.3770  -10.2910 C.ar  444  TRP444      0.0810
    116  CE3      -22.1600    8.8830   -8.8450 C.ar  444  TRP444      0.0012
    117  CZ2      -23.8370   10.7540  -10.1730 C.ar  444  TRP444      0.0191
    118  CZ3      -21.9540   10.2600   -8.7280 C.ar  444  TRP444      0.0001
    119  CH2      -22.7910   11.1760   -9.3920 C.ar  444  TRP444      0.0015
    120  N        -24.2900    2.3470   -9.0390 N.am  445  GLU445     -0.1963
    121  CA       -23.8220    0.9890   -8.8060 C.3   445  GLU445      0.1733
    122  C        -22.6350    0.4980   -9.6540 C.2   445  GLU445      0.2616
    123  O        -21.6730   -0.0630   -9.1090 O.2   445  GLU445     -0.2715
    124  CB       -25.0040    0.0250   -8.9340 C.3   445  GLU445      0.0429
    125  CG       -24.9000   -1.2100   -8.0490 C.3   445  GLU445      0.1163
    126  CD       -24.6010   -0.8620   -6.5950 C.2   445  GLU445      0.3649
    127  OE1      -25.0710    0.1990   -6.1230 O.co2 445  GLU445     -0.2457
    128  OE2      -23.9020   -1.6540   -5.9220 O.co2 445  GLU445     -0.2457
    129  N        -22.6880    0.7010  -10.9690 N.am  446  MET446     -0.1963
    130  CA       -21.5970    0.2570  -11.8310 C.3   446  MET446      0.1736
    131  C        -20.2340    0.7410  -11.3340 C.2   446  MET446      0.2616
    132  O        -19.2160    0.0610  -11.5160 O.2   446  MET446     -0.2715
    133  CB       -21.8090    0.7410  -13.2620 C.3   446  MET446      0.0427
    134  CG       -21.7760   -0.3750  -14.2860 C.3   446  MET446      0.0599
    135  SD       -20.7420    0.0050  -15.6960 S.3   446  MET446     -0.1393
    136  CE       -19.5260   -1.3100  -15.5650 C.3   446  MET446      0.0692
    137  N        -20.2100    1.9170  -10.7130 N.am  447  LEU447     -0.1977
    138  CA       -18.9590    2.4520  -10.1980 C.3   447  LEU447      0.1596
    139  C        -18.6780    1.9100   -8.8110 C.2   447  LEU447      0.2287
    140  O        -17.5310    1.6280   -8.4790 O.2   447  LEU447     -0.2864
    141  CB       -18.9820    3.9790  -10.1480 C.3   447  LEU447      0.0297
    142  CG       -19.1540    4.7370  -11.4600 C.3   447  LEU447      0.0022
    143  CD1      -18.8270    6.2030  -11.2120 C.3   447  LEU447      0.0001
    144  CD2      -18.2450    4.1640  -12.5320 C.3   447  LEU447      0.0001
@<TRIPOS>BOND
     1     4     3    2
     2     3     2    1
     3     1     2    1
     4     2     5    1
     5     5     6    1
     6     7     6    2
     7     6     8   am
     8    35    36    1
     9    40    41    1
    10    40    37   am
    11    36    37    1
    12    36    39    1
    13    43    42    2
    14    41    42    1
    15    37    38    2
    16    42    44   am
    17    47    46    2
    18    46    45    1
    19    44    45    1
    20    45    48    1
    21     9    10    1
    22    15    16    1
    23    15    14    1
    24    13    10    1
    25    13    14    1
    26    10    11    1
    27    32    31    2
    28    76    75    2
    29    48    49    1
    30    31    30    1
    31    75    74    1
    32    34    33    1
    33    11    17   am
    34    11    12    2
    35    49    50    1
    36    77    74    1
    37    77    78    1
    38    17    18    1
    39    33    30    1
    40    20    19    2
    41    74    73    1
    42    30    29    1
    43    79    78    1
    44    79    80    1
    45    72    69    1
    46    71    70    2
    47    70    69    1
    48    24    23    2
    49    29    23   am
    50    50    51    1
    51    19    18    1
    52    19    21   am
    53    69    68    1
    54    23    22    1
    55    90    91   ar
    56    90    88   ar
    57    52    53    1
    58    91    89   ar
    59   135   136    1
    60   135   134    1
    61    21    22    1
    62    22    25    1
    63    88    86   ar
    64    89    87   ar
    65    68    66   am
    66    55    54    2
    67    53    54    1
    68   134   133    1
    69    27    26   ar
    70    86    87   ar
    71    86    85    1
    72    67    66    2
    73    54    56   am
    74    66    65    1
    75    25    26    1
    76    26    28   ar
    77    81    82    1
    78   133   130    1
    79    85    82    1
    80    59    58    2
    81    56    57    1
    82   144   142    1
    83    65    64    1
    84    82    83    1
    85    58    64   am
    86    58    57    1
    87    57    60    1
    88   130   131    1
    89   130   129    1
    90   132   131    2
    91   142   143    1
    92   142   141    1
    93    84    83    2
    94   131   137   am
    95   114   112   ar
    96   114   115   ar
    97   129   122   am
    98   112   111   ar
    99   137   138    1
   100    60    61    1
   101   115   117   ar
   102   115   113   ar
   103   138   141    1
   104   138   139    1
   105   117   119   ar
   106    62    61   ar
   107   111   113   ar
   108   111   110    1
   109    61    63   ar
   110   122   123    2
   111   122   121    1
   112   113   116   ar
   113   110   107    1
   114    99    97   am
   115   107   108    1
   116   107   106    1
   117   119   118   ar
   118   109   108    2
   119   108   120   am
   120   120   121    1
   121   124   121    1
   122   124   125    1
   123   103   102    2
   124   116   118   ar
   125   139   140    2
   126    98    97    2
   127    97    96    1
   128   106   102   am
   129    92    93    1
   130   125   126    1
   131   102   101    1
   132    96    93    1
   133    93    94    1
   134   100   101    1
   135   101   104    1
   136   126   127   ar
   137   126   128   ar
   138   105   104    1
   139    94    95    2
