@<TRIPOS>MOLECULE
tmp/2q5lA00.pdb
 70 67 0 0 0
SMALL
GASTEIGER

@<TRIPOS>ATOM
      1  N        -33.5050  -21.0070   32.0230 N.3    28  ILE28      -0.1231
      2  CA       -33.9240  -22.0450   31.1020 C.3    28  ILE28       0.1678
      3  C        -33.4610  -23.3050   31.8180 C.2    28  ILE28       0.2434
      4  O        -32.2830  -23.4380   32.1640 O.2    28  ILE28      -0.2733
      5  CB       -33.2360  -21.9510   29.7140 C.3    28  ILE28       0.0265
      6  CG1      -33.8060  -20.7700   28.9300 C.3    28  ILE28       0.0019
      7  CG2      -33.4880  -23.2290   28.9290 C.3    28  ILE28       0.0020
      8  CD1      -33.0610  -20.4840   27.6200 C.3    28  ILE28       0.0001
      9  N        -34.3920  -24.2340   32.0870 N.am   29  PRO29      -0.2718
     10  CA       -34.0610  -25.4810   32.7780 C.3    29  PRO29       0.1535
     11  C        -33.4020  -26.5520   31.8980 C.2    29  PRO29       0.2599
     12  O        -33.2300  -26.3740   30.6850 O.2    29  PRO29      -0.2715
     13  CB       -35.4210  -25.9350   33.3180 C.3    29  PRO29       0.0310
     14  CG       -36.3460  -25.5430   32.1750 C.3    29  PRO29       0.0237
     15  CD       -35.8460  -24.1210   31.8650 C.3    29  PRO29       0.0939
     16  N        -33.0450  -27.6640   32.5410 N.am   30  GLY30      -0.1941
     17  CA       -32.4230  -28.7920   31.8650 C.3    30  GLY30       0.2014
     18  C        -32.5010  -29.9470   32.8470 C.2    30  GLY30       0.2638
     19  O        -32.8200  -29.7190   34.0060 O.2    30  GLY30      -0.2714
     20  N        -32.2060  -31.1690   32.4290 N.am   31  ASP31      -0.1971
     21  CA       -32.3270  -32.2660   33.3800 C.3    31  ASP31       0.1709
     22  C        -31.6280  -32.0400   34.7180 C.2    31  ASP31       0.2293
     23  O        -32.2430  -32.2400   35.7670 O.2    31  ASP31      -0.2864
     24  CB       -31.9120  -33.6160   32.7600 C.3    31  ASP31       0.1436
     25  CG       -30.5930  -33.5620   32.0140 C.2    31  ASP31       0.3671
     26  OD1      -29.8170  -32.5970   32.1970 O.co2  31  ASP31      -0.2456
     27  OD2      -30.3300  -34.5120   31.2430 O.co2  31  ASP31      -0.2456
     28  N        -33.5270  -18.6540   24.6860 N.3    53  HIS53      -0.1226
     29  CA       -32.1210  -19.0110   24.5140 C.3    53  HIS53       0.1752
     30  C        -31.3220  -18.4200   25.6790 C.2    53  HIS53       0.2595
     31  O        -31.6320  -17.3200   26.1560 O.2    53  HIS53      -0.2718
     32  CB       -31.6800  -18.4180   23.1610 C.3    53  HIS53       0.0759
     33  CG       -30.5690  -19.1560   22.4790 C.ar   53  HIS53       0.0818
     34  ND1      -29.9090  -18.6360   21.3830 N.ar   53  HIS53      -0.2268
     35  CD2      -30.0060  -20.3670   22.7180 C.ar   53  HIS53       0.1154
     36  CE1      -28.9880  -19.4940   20.9790 C.ar   53  HIS53       0.1986
     37  NE2      -29.0260  -20.5510   21.7710 N.ar   53  HIS53      -0.2212
     38  N        -30.2890  -19.1380   26.1300 N.am   54  GLU54      -0.1979
     39  CA       -29.4920  -18.6800   27.2640 C.3    54  GLU54       0.1602
     40  C        -28.8910  -17.2850   27.1730 C.2    54  GLU54       0.2287
     41  O        -28.7950  -16.5990   28.1930 O.2    54  GLU54      -0.2864
     42  CB       -28.4070  -19.7070   27.6060 C.3    54  GLU54       0.0415
     43  CG       -28.9640  -20.9440   28.3260 C.3    54  GLU54       0.1163
     44  CD       -29.5090  -22.0050   27.3860 C.2    54  GLU54       0.3649
     45  OE1      -29.4290  -21.8330   26.1480 O.co2  54  GLU54      -0.2457
     46  OE2      -30.0120  -23.0260   27.8950 O.co2  54  GLU54      -0.2457
     47  N        -28.7550  -24.7910   33.1140 N.3    77  THR77      -0.1218
     48  CA       -28.4700  -26.1850   33.3900 C.3    77  THR77       0.1862
     49  C        -26.9990  -26.4380   33.0590 C.2    77  THR77       0.2287
     50  O        -26.3430  -25.6330   32.3870 O.2    77  THR77      -0.2866
     51  CB       -29.3860  -27.1190   32.5740 C.3    77  THR77       0.1770
     52  OG1      -29.2670  -28.4590   33.0830 O.3    77  THR77      -0.2211
     53  CG2      -29.0160  -27.0850   31.0720 C.3    77  THR77       0.0375
     54  N        -24.0260  -27.4540   28.0950 N.3    80  ALA80      -0.1231
     55  CA       -24.4690  -26.5340   27.0500 C.3    80  ALA80       0.1694
     56  C        -25.2010  -25.2940   27.5510 C.2    80  ALA80       0.2592
     57  O        -24.9140  -24.1770   27.1040 O.2    80  ALA80      -0.2718
     58  CB       -25.3310  -27.2740   26.0560 C.3    80  ALA80       0.0304
     59  N        -26.1560  -25.4710   28.4590 N.am   81  GLY81      -0.1957
     60  CA       -26.8890  -24.3190   28.9630 C.3    81  GLY81       0.1869
     61  C        -25.9750  -23.2520   29.5460 C.2    81  GLY81       0.2309
     62  O        -26.0700  -22.0670   29.2030 O.2    81  GLY81      -0.2863
     63  N        -23.5210  -21.6180   27.0660 N.3    84  ASN84      -0.1240
     64  CA       -24.2400  -20.7360   26.1580 C.3    84  ASN84       0.1653
     65  C        -24.5240  -19.3480   26.7540 C.2    84  ASN84       0.2266
     66  O        -25.0420  -18.4690   26.0650 O.2    84  ASN84      -0.2867
     67  CB       -25.5500  -21.4230   25.7340 C.3    84  ASN84       0.1155
     68  CG       -26.0760  -20.9210   24.4040 C.2    84  ASN84       0.2627
     69  OD1      -25.3110  -20.4510   23.5750 O.2    84  ASN84      -0.2716
     70  ND2      -27.3910  -21.0400   24.1890 N.am   84  ASN84      -0.0877
@<TRIPOS>BOND
     1    36    34   ar
     2    36    37   ar
     3    34    33   ar
     4    37    35   ar
     5    33    35   ar
     6    33    32    1
     7    32    29    1
     8    69    68    2
     9    70    68   am
    10    68    67    1
    11    29    28    1
    12    29    30    1
    13    30    38   am
    14    30    31    2
    15    67    64    1
    16    58    55    1
    17    66    65    2
    18    38    39    1
    19    45    44   ar
    20    64    65    1
    21    64    63    1
    22    55    56    1
    23    55    54    1
    24    57    56    2
    25    40    39    1
    26    40    41    2
    27    39    42    1
    28    44    46   ar
    29    44    43    1
    30    56    59   am
    31    42    43    1
    32     8     6    1
    33    59    60    1
    34     7     5    1
    35     6     5    1
    36    60    61    1
    37    62    61    2
    38     5     2    1
    39    12    11    2
    40    53    51    1
    41     2     3    1
    42     2     1    1
    43    27    25   ar
    44     3     9   am
    45     3     4    2
    46    17    16    1
    47    17    18    1
    48    15     9    1
    49    15    14    1
    50    11    16   am
    51    11    10    1
    52    25    26   ar
    53    25    24    1
    54     9    10    1
    55    14    13    1
    56    50    49    2
    57    20    18   am
    58    20    21    1
    59    51    52    1
    60    51    48    1
    61    24    21    1
    62    10    13    1
    63    18    19    2
    64    49    48    1
    65    47    48    1
    66    21    22    1
    67    22    23    2
