@<TRIPOS>MOLECULE
tmp/2q5lA02.pdb
 155 150 0 0 0
SMALL
GASTEIGER

@<TRIPOS>ATOM
      1  N        -20.9450  -15.4820   27.2150 N.3    87  ASN87      -0.1240
      2  CA       -20.8480  -14.1310   26.6660 C.3    87  ASN87       0.1653
      3  C        -21.6700  -13.0970   27.4510 C.2    87  ASN87       0.2266
      4  O        -21.1730  -12.0200   27.7780 O.2    87  ASN87      -0.2867
      5  CB       -21.2910  -14.1120   25.1970 C.3    87  ASN87       0.1155
      6  CG       -21.2590  -12.7050   24.6100 C.2    87  ASN87       0.2627
      7  OD1      -20.2570  -11.9900   24.7400 O.2    87  ASN87      -0.2716
      8  ND2      -22.3560  -12.2980   23.9810 N.am   87  ASN87      -0.0877
      9  N        -25.9650   -3.0190   20.4950 N.3   381  MET381     -0.1230
     10  CA       -24.7460   -2.3760   19.9910 C.3   381  MET381      0.1702
     11  C        -24.9920   -2.1680   18.4990 C.2   381  MET381      0.2593
     12  O        -25.5040   -3.0720   17.8270 O.2   381  MET381     -0.2718
     13  CB       -23.5240   -3.2860   20.1520 C.3   381  MET381      0.0401
     14  CG       -22.2330   -2.6990   19.5610 C.3   381  MET381      0.0596
     15  SD       -21.8420   -1.0650   20.2390 S.3   381  MET381     -0.1393
     16  CE       -20.4970   -0.5910   19.0760 C.3   381  MET381      0.0692
     17  N        -24.6110   -0.9930   17.9960 N.am  382  GLY382     -0.1942
     18  CA       -24.8180   -0.6490   16.5950 C.3   382  GLY382      0.2014
     19  C        -25.2060    0.8190   16.5100 C.2   382  GLY382      0.2639
     20  O        -25.1590    1.5240   17.5200 O.2   382  GLY382     -0.2714
     21  N        -25.5950    1.3100   15.3340 N.am  383  ASP383     -0.1957
     22  CA       -25.9780    2.7190   15.2450 C.3   383  ASP383      0.1840
     23  C        -27.2040    2.9760   16.1230 C.2   383  ASP383      0.2622
     24  O        -27.4830    4.1160   16.4890 O.2   383  ASP383     -0.2715
     25  CB       -26.2660    3.1220   13.7860 C.3   383  ASP383      0.1450
     26  CG       -26.1260    4.6270   13.5470 C.2   383  ASP383      0.3671
     27  OD1      -25.5520    5.3160   14.4140 O.co2 383  ASP383     -0.2456
     28  OD2      -26.5730    5.1170   12.4770 O.co2 383  ASP383     -0.2456
     29  N        -27.9270    1.9200   16.4910 N.am  384  CYS384     -0.1968
     30  CA       -29.0970    2.1100   17.3400 C.3   384  CYS384      0.1712
     31  C        -28.6720    2.7930   18.6530 C.2   384  CYS384      0.2296
     32  O        -29.3790    3.6720   19.1720 O.2   384  CYS384     -0.2864
     33  CB       -29.7800    0.7610   17.6110 C.3   384  CYS384      0.0983
     34  SG       -28.7340   -0.4920   18.4080 S.3   384  CYS384     -0.0798
     35  N        -19.6950   -3.5610   24.1030 N.3   403  ALA403     -0.1231
     36  CA       -20.0930   -3.5390   22.6910 C.3   403  ALA403      0.1694
     37  C        -20.4650   -4.8860   22.0940 C.2   403  ALA403      0.2593
     38  O        -20.2170   -5.1320   20.9140 O.2   403  ALA403     -0.2718
     39  CB       -18.9920   -2.8910   21.8490 C.3   403  ALA403      0.0304
     40  N        -21.0550   -5.7650   22.8960 N.am  404  GLY404     -0.1942
     41  CA       -21.4540   -7.0610   22.3720 C.3   404  GLY404      0.2014
     42  C        -22.8880   -6.9880   21.8740 C.2   404  GLY404      0.2638
     43  O        -23.7490   -6.4190   22.5500 O.2   404  GLY404     -0.2714
     44  N        -23.1580   -7.5430   20.6920 N.am  405  MET405     -0.1976
     45  CA       -24.5130   -7.5150   20.1500 C.3   405  MET405      0.1605
     46  C        -25.4290   -8.5460   20.7830 C.2   405  MET405      0.2287
     47  O        -24.9600   -9.5610   21.3050 O.2   405  MET405     -0.2864
     48  CB       -24.4900   -7.7610   18.6370 C.3   405  MET405      0.0413
     49  CG       -23.9280   -6.5910   17.8670 C.3   405  MET405      0.0598
     50  SD       -23.4770   -7.1140   16.2390 S.3   405  MET405     -0.1393
     51  CE       -25.1170   -7.5370   15.5230 C.3   405  MET405      0.0692
     52  N        -30.6170   -2.9180   15.8700 N.3   429  GLY429     -0.1210
     53  CA       -30.4070   -2.9960   14.4250 C.3   429  GLY429      0.1956
     54  C        -30.8330   -4.3470   13.8560 C.2   429  GLY429      0.2612
     55  O        -31.1650   -5.2750   14.5980 O.2   429  GLY429     -0.2717
     56  N        -30.8220   -4.4710   12.5320 N.am  430  ASP430     -0.1959
     57  CA       -31.2320   -5.7230   11.9050 C.3   430  ASP430      0.1840
     58  C        -30.2610   -6.8790   12.1980 C.2   430  ASP430      0.2623
     59  O        -30.6890   -8.0060   12.4590 O.2   430  ASP430     -0.2715
     60  CB       -31.4400   -5.5050   10.3970 C.3   430  ASP430      0.1450
     61  CG       -30.2140   -4.9280    9.6910 C.2   430  ASP430      0.3671
     62  OD1      -29.6480   -3.9220   10.1590 O.co2 430  ASP430     -0.2456
     63  OD2      -29.8270   -5.4820    8.6380 O.co2 430  ASP430     -0.2456
     64  N        -28.9600   -6.6030   12.1890 N.am  431  GLY431     -0.1940
     65  CA       -28.0030   -7.6490   12.5070 C.3   431  GLY431      0.2014
     66  C        -28.2220   -8.1900   13.9160 C.2   431  GLY431      0.2638
     67  O        -28.2620   -9.4040   14.1180 O.2   431  GLY431     -0.2714
     68  N        -28.3710   -7.2960   14.8950 N.am  432  ALA432     -0.1977
     69  CA       -28.5890   -7.7320   16.2790 C.3   432  ALA432      0.1597
     70  C        -29.9460   -8.4060   16.4600 C.2   432  ALA432      0.2287
     71  O        -30.0790   -9.3430   17.2430 O.2   432  ALA432     -0.2864
     72  CB       -28.4520   -6.5420   17.2430 C.3   432  ALA432      0.0319
     73  N        -30.0630  -12.0240   15.8630 N.3   435  MET435     -0.1245
     74  CA       -29.4540  -12.8030   16.9380 C.3   435  MET435      0.1570
     75  C        -30.4170  -13.1280   18.0910 C.2   435  MET435      0.2261
     76  O        -30.5930  -14.2950   18.4530 O.2   435  MET435     -0.2867
     77  CB       -28.2500  -12.0490   17.5260 C.3   435  MET435      0.0387
     78  CG       -27.0870  -11.8190   16.5510 C.3   435  MET435      0.0595
     79  SD       -25.7560  -10.9060   17.3790 S.3   435  MET435     -0.1393
     80  CE       -24.4540  -11.0180   16.0890 C.3   435  MET435      0.0692
     81  N        -33.8980   -0.8830   13.5280 N.3   455  PHE455     -0.1241
     82  CA       -33.2270   -0.1110   12.4800 C.3   455  PHE455      0.1605
     83  C        -32.8250   -1.1040   11.3940 C.2   455  PHE455      0.2264
     84  O        -31.8150   -1.7900   11.5240 O.2   455  PHE455     -0.2867
     85  CB       -31.9530    0.5770   13.0210 C.3   455  PHE455      0.0534
     86  CG       -32.2090    1.7080   14.0020 C.ar  455  PHE455     -0.0203
     87  CD1      -31.4370    2.8650   13.9460 C.ar  455  PHE455     -0.0042
     88  CD2      -33.1610    1.5870   15.0190 C.ar  455  PHE455     -0.0042
     89  CE1      -31.5910    3.8990   14.8830 C.ar  455  PHE455     -0.0003
     90  CE2      -33.3350    2.6080   15.9640 C.ar  455  PHE455     -0.0003
     91  CZ       -32.5420    3.7740   15.8980 C.ar  455  PHE455     -0.0000
     92  N        -31.3150   -1.5360    8.0280 N.3   457  ASN457     -0.1240
     93  CA       -30.5920   -1.0210    6.8710 C.3   457  ASN457      0.1653
     94  C        -30.0260   -2.1780    6.0380 C.2   457  ASN457      0.2266
     95  O        -29.2010   -1.9470    5.1580 O.2   457  ASN457     -0.2867
     96  CB       -29.4620   -0.0460    7.2920 C.3   457  ASN457      0.1155
     97  CG       -28.6150   -0.5570    8.4650 C.2   457  ASN457      0.2627
     98  OD1      -28.5050   -1.7550    8.6910 O.2   457  ASN457     -0.2716
     99  ND2      -27.9920    0.3700    9.1910 N.am  457  ASN457     -0.0877
    100  N        -27.9050   -4.3880    6.7150 N.3   459  SER459     -0.1202
    101  CA       -26.4720   -4.2020    6.7630 C.3   459  SER459      0.2020
    102  C        -25.8840   -4.2630    8.1540 C.2   459  SER459      0.2619
    103  O        -26.5710   -3.9780    9.1350 O.2   459  SER459     -0.2717
    104  CB       -26.1920   -2.8010    6.1860 C.3   459  SER459      0.2103
    105  OG       -24.8560   -2.3740    6.3360 O.3   459  SER459     -0.2182
    106  N        -24.6190   -4.6740    8.2310 N.am  460  TRP460     -0.1961
    107  CA       -23.8760   -4.6160    9.4930 C.3   460  TRP460      0.1771
    108  C        -23.2150   -3.2620    9.2310 C.2   460  TRP460      0.2620
    109  O        -22.0250   -3.1850    8.8860 O.2   460  TRP460     -0.2715
    110  CB       -22.8110   -5.7200    9.5650 C.3   460  TRP460      0.0590
    111  CG       -23.3480   -7.0460    9.9810 C.ar  460  TRP460      0.0006
    112  CD1      -24.3230   -7.2800   10.9190 C.ar  460  TRP460      0.0946
    113  CD2      -22.8900   -8.3350    9.5520 C.ar  460  TRP460      0.0152
    114  NE1      -24.4950   -8.6290   11.0980 N.ar  460  TRP460     -0.2442
    115  CE2      -23.6310   -9.3020   10.2720 C.ar  460  TRP460      0.0810
    116  CE3      -21.9300   -8.7670    8.6270 C.ar  460  TRP460      0.0012
    117  CZ2      -23.4420  -10.6770   10.0940 C.ar  460  TRP460      0.0191
    118  CZ3      -21.7390  -10.1340    8.4470 C.ar  460  TRP460      0.0001
    119  CH2      -22.4950  -11.0770    9.1820 C.ar  460  TRP460      0.0015
    120  N        -23.9990   -2.1940    9.3650 N.am  461  GLU461     -0.1963
    121  CA       -23.5330   -0.8510    9.0170 C.3   461  GLU461      0.1733
    122  C        -22.3310   -0.2970    9.7820 C.2   461  GLU461      0.2616
    123  O        -21.4910    0.3980    9.1990 O.2   461  GLU461     -0.2715
    124  CB       -24.7230    0.1280    9.0580 C.3   461  GLU461      0.0429
    125  CG       -24.5130    1.4770    8.3250 C.3   461  GLU461      0.1163
    126  CD       -24.3200    1.3450    6.8060 C.2   461  GLU461      0.3649
    127  OE1      -24.6540    0.2920    6.2180 O.co2 461  GLU461     -0.2457
    128  OE2      -23.8450    2.3250    6.1850 O.co2 461  GLU461     -0.2457
    129  N        -22.2150   -0.5830   11.0760 N.am  462  MET462     -0.1963
    130  CA       -21.0450   -0.0820   11.7740 C.3   462  MET462      0.1736
    131  C        -19.7780   -0.6840   11.1830 C.2   462  MET462      0.2616
    132  O        -18.7330   -0.0380   11.1900 O.2   462  MET462     -0.2715
    133  CB       -21.1170   -0.3720   13.2700 C.3   462  MET462      0.0427
    134  CG       -21.8970    0.6810   14.0250 C.3   462  MET462      0.0599
    135  SD       -21.5350    0.5810   15.8080 S.3   462  MET462     -0.1393
    136  CE       -19.8970    1.2700   15.9060 C.3   462  MET462      0.0692
    137  N        -19.8640   -1.9110   10.6700 N.am  463  LEU463     -0.1977
    138  CA       -18.7000   -2.5470   10.0650 C.3   463  LEU463      0.1596
    139  C        -18.4290   -1.9230    8.7010 C.2   463  LEU463      0.2287
    140  O        -17.2770   -1.7750    8.3070 O.2   463  LEU463     -0.2864
    141  CB       -18.9060   -4.0590    9.9080 C.3   463  LEU463      0.0297
    142  CG       -19.1270   -4.8000   11.2360 C.3   463  LEU463      0.0022
    143  CD1      -19.0550   -6.2970   11.0190 C.3   463  LEU463      0.0001
    144  CD2      -18.0690   -4.3580   12.2570 C.3   463  LEU463      0.0001
    145  N        -16.2950    1.0920    8.9280 N.3   466  PHE466     -0.1241
    146  CA       -14.8890    0.7920    9.1980 C.3   466  PHE466      0.1605
    147  C        -14.1760    0.2420    7.9610 C.2   466  PHE466      0.2264
    148  O        -12.9870    0.4700    7.7760 O.2   466  PHE466     -0.2867
    149  CB       -14.7490   -0.2830   10.2830 C.3   466  PHE466      0.0534
    150  CG       -14.8030    0.2270   11.6970 C.ar  466  PHE466     -0.0203
    151  CD1      -15.8890   -0.0830   12.5160 C.ar  466  PHE466     -0.0042
    152  CD2      -13.7300    0.9270   12.2440 C.ar  466  PHE466     -0.0042
    153  CE1      -15.9060    0.2880   13.8640 C.ar  466  PHE466     -0.0003
    154  CE2      -13.7310    1.3070   13.5940 C.ar  466  PHE466     -0.0003
    155  CZ       -14.8230    0.9850   14.4060 C.ar  466  PHE466     -0.0000
@<TRIPOS>BOND
     1    95    94    2
     2    94    93    1
     3   128   126   ar
     4   104   105    1
     5   104   101    1
     6   127   126   ar
     7   100   101    1
     8   101   102    1
     9   126   125    1
    10    93    96    1
    11    93    92    1
    12    96    97    1
    13   148   147    2
    14   147   146    1
    15   102   106   am
    16   102   103    2
    17   106   107    1
    18   140   139    2
    19   125   124    1
    20   118   116   ar
    21   118   119   ar
    22    97    98    2
    23    97    99   am
    24   116   113   ar
    25    63    61   ar
    26   139   138    1
    27   109   108    2
    28   145   146    1
    29   121   124    1
    30   121   120    1
    31   121   122    1
    32   119   117   ar
    33   146   149    1
    34   123   122    2
    35   108   120   am
    36   108   107    1
    37   107   110    1
    38   113   111   ar
    39   113   115   ar
    40   110   111    1
    41    61    62   ar
    42    61    60    1
    43   122   129   am
    44   141   138    1
    45   141   142    1
    46   111   112   ar
    47   138   137    1
    48   117   115   ar
    49   115   114   ar
    50   149   150    1
    51    60    57    1
    52   137   131   am
    53   112   114   ar
    54   143   142    1
    55   129   130    1
    56   131   132    2
    57   131   130    1
    58   142   144    1
    59    83    84    2
    60    83    82    1
    61   150   152   ar
    62   150   151   ar
    63   130   133    1
    64    57    58    1
    65    57    56    1
    66    64    58   am
    67    64    65    1
    68    58    59    2
    69   152   154   ar
    70    28    26   ar
    71    82    85    1
    72    82    81    1
    73    65    66    1
    74   151   153   ar
    75    56    54   am
    76    85    86    1
    77   133   134    1
    78    26    25    1
    79    26    27   ar
    80   154   155   ar
    81    25    22    1
    82    54    53    1
    83    54    55    2
    84   153   155   ar
    85    66    67    2
    86    66    68   am
    87    87    86   ar
    88    87    89   ar
    89    86    88   ar
    90   134   135    1
    91    53    52    1
    92    89    91   ar
    93    68    69    1
    94    88    90   ar
    95    22    21    1
    96    22    23    1
    97    21    19   am
    98    51    50    1
    99   135   136    1
   100    73    74    1
   101    91    90   ar
   102    80    79    1
   103    23    24    2
   104    23    29   am
   105    50    49    1
   106    69    70    1
   107    69    72    1
   108    70    71    2
   109    29    30    1
   110    19    18    1
   111    19    20    2
   112    78    79    1
   113    78    77    1
   114    18    17    1
   115    74    77    1
   116    74    75    1
   117    30    33    1
   118    30    31    1
   119    33    34    1
   120    12    11    2
   121    49    48    1
   122    17    11   am
   123    75    76    2
   124    11    10    1
   125    48    45    1
   126    31    32    2
   127    16    15    1
   128    14    13    1
   129    14    15    1
   130    10    13    1
   131    10     9    1
   132    45    44    1
   133    45    46    1
   134    44    42   am
   135    46    47    2
   136    38    37    2
   137    39    36    1
   138    42    41    1
   139    42    43    2
   140    37    36    1
   141    37    40   am
   142    41    40    1
   143    36    35    1
   144     8     6   am
   145     6     7    2
   146     6     5    1
   147     5     2    1
   148     2     1    1
   149     2     3    1
   150     3     4    2
