@<TRIPOS>MOLECULE
tmp/2q5oA02.pdb
 117 110 0 0 0
SMALL
GASTEIGER

@<TRIPOS>ATOM
      1  N        -30.6610  -14.5840   28.3070 N.3    61  ARG61      -0.1245
      2  CA       -29.9250  -15.8110   28.6070 C.3    61  ARG61       0.1563
      3  C        -30.6560  -16.6240   29.6590 C.2    61  ARG61       0.2260
      4  O        -30.7160  -17.8600   29.5990 O.2    61  ARG61      -0.2867
      5  CB       -28.5260  -15.4890   29.1250 C.3    61  ARG61       0.0307
      6  CG       -27.6750  -14.7310   28.1420 C.3    61  ARG61       0.0489
      7  CD       -26.2220  -14.6280   28.6080 C.3    61  ARG61       0.2205
      8  NE       -25.5180  -13.5950   27.8610 N.pl3  61  ARG61      -0.0865
      9  CZ       -24.2000  -13.5190   27.7170 C.cat  61  ARG61       0.5346
     10  NH1      -23.4030  -14.4290   28.2740 N.pl3  61  ARG61       0.1354
     11  NH2      -23.6790  -12.5300   27.0020 N.pl3  61  ARG61       0.1354
     12  N        -22.8220  -22.5710   24.1040 N.3   212  VAL212     -0.1245
     13  CA       -23.9490  -21.6230   24.0970 C.3   212  VAL212      0.1561
     14  C        -25.2630  -21.9510   23.4070 C.2   212  VAL212      0.2260
     15  O        -26.3200  -21.8610   24.0240 O.2   212  VAL212     -0.2867
     16  CB       -23.5590  -20.2370   23.5350 C.3   212  VAL212      0.0252
     17  CG1      -22.7070  -19.5080   24.5090 C.3   212  VAL212      0.0019
     18  CG2      -22.8600  -20.4030   22.1810 C.3   212  VAL212      0.0019
     19  N        -28.0990  -23.6300   25.1090 N.3   215  ARG215     -0.1231
     20  CA       -28.9890  -22.8690   25.9800 C.3   215  ARG215      0.1694
     21  C        -29.8790  -21.9200   25.1670 C.2   215  ARG215      0.2591
     22  O        -31.0850  -21.8250   25.3960 O.2   215  ARG215     -0.2718
     23  CB       -28.1850  -22.0450   26.9770 C.3   215  ARG215      0.0321
     24  CG       -29.0290  -21.1080   27.8390 C.3   215  ARG215      0.0489
     25  CD       -29.6110  -21.8090   29.0520 C.3   215  ARG215      0.2205
     26  NE       -30.2750  -20.8740   29.9610 N.pl3 215  ARG215     -0.0865
     27  CZ       -30.6430  -21.1790   31.2040 C.cat 215  ARG215      0.5346
     28  NH1      -30.4130  -22.4000   31.6930 N.pl3 215  ARG215      0.1354
     29  NH2      -31.2260  -20.2640   31.9700 N.pl3 215  ARG215      0.1354
     30  N        -29.2790  -21.2270   24.2090 N.am  216  ARG216     -0.1980
     31  CA       -30.0250  -20.2730   23.4070 C.3   216  ARG216      0.1597
     32  C        -31.2910  -20.8590   22.8130 C.2   216  ARG216      0.2287
     33  O        -32.3290  -20.1980   22.8010 O.2   216  ARG216     -0.2864
     34  CB       -29.1370  -19.7020   22.2980 C.3   216  ARG216      0.0334
     35  CG       -27.8720  -19.0230   22.8280 C.3   216  ARG216      0.0492
     36  CD       -28.1820  -17.8990   23.8070 C.3   216  ARG216      0.2205
     37  NE       -26.9510  -17.2060   24.1870 N.pl3 216  ARG216     -0.0865
     38  CZ       -26.3160  -17.3630   25.3490 C.cat 216  ARG216      0.5346
     39  NH1      -26.8010  -18.1900   26.2680 N.pl3 216  ARG216      0.1354
     40  NH2      -25.1790  -16.7120   25.5750 N.pl3 216  ARG216      0.1354
     41  N        -31.0990  -27.8930   26.5040 N.3   220  GLU220     -0.1245
     42  CA       -30.4080  -28.5750   27.6010 C.3   220  GLU220      0.1567
     43  C        -31.0140  -29.9320   27.9680 C.2   220  GLU220      0.2260
     44  O        -30.3060  -30.9400   27.9910 O.2   220  GLU220     -0.2867
     45  CB       -30.3240  -27.6670   28.8390 C.3   220  GLU220      0.0388
     46  CG       -29.3560  -26.5100   28.6410 C.3   220  GLU220      0.1160
     47  CD       -29.3740  -25.5240   29.7860 C.2   220  GLU220      0.3649
     48  OE1      -30.3550  -24.7560   29.9110 O.co2 220  GLU220     -0.2457
     49  OE2      -28.4070  -25.5250   30.5700 O.co2 220  GLU220     -0.2457
     50  N        -16.9230  -21.2860   27.5620 N.3   239  MET239     -0.1230
     51  CA       -18.0660  -20.4170   27.3090 C.3   239  MET239      0.1702
     52  C        -19.3540  -21.0440   27.8370 C.2   239  MET239      0.2593
     53  O        -20.2030  -20.3490   28.3830 O.2   239  MET239     -0.2718
     54  CB       -18.2140  -20.1620   25.8070 C.3   239  MET239      0.0401
     55  CG       -19.4470  -19.3530   25.4120 C.3   239  MET239      0.0596
     56  SD       -19.3990  -17.5990   25.9440 S.3   239  MET239     -0.1393
     57  CE       -20.9930  -17.4420   26.8180 C.3   239  MET239      0.0692
     58  N        -19.4790  -22.3630   27.6730 N.am  240  GLY240     -0.1942
     59  CA       -20.6690  -23.0820   28.0880 C.3   240  GLY240      0.2014
     60  C        -20.7580  -23.5380   29.5290 C.2   240  GLY240      0.2639
     61  O        -21.6180  -24.3600   29.8710 O.2   240  GLY240     -0.2714
     62  N        -19.8740  -23.0260   30.3800 N.am  241  ARG241     -0.1963
     63  CA       -19.8990  -23.3820   31.7960 C.3   241  ARG241      0.1729
     64  C        -21.2810  -23.0730   32.3690 C.2   241  ARG241      0.2617
     65  O        -21.8380  -21.9910   32.1330 O.2   241  ARG241     -0.2715
     66  CB       -18.8470  -22.5780   32.5550 C.3   241  ARG241      0.0348
     67  CG       -18.9810  -22.7020   34.0470 C.3   241  ARG241      0.0492
     68  CD       -18.6390  -24.1070   34.5090 C.3   241  ARG241      0.2205
     69  NE       -18.8200  -24.2430   35.9490 N.pl3 241  ARG241     -0.0865
     70  CZ       -18.7070  -25.3810   36.6220 C.cat 241  ARG241      0.5346
     71  NH1      -18.4060  -26.5080   35.9900 N.pl3 241  ARG241      0.1354
     72  NH2      -18.9150  -25.3920   37.9320 N.pl3 241  ARG241      0.1354
     73  N        -21.8420  -24.0170   33.1170 N.am  242  GLY242     -0.1940
     74  CA       -23.1640  -23.7930   33.6870 C.3   242  GLY242      0.2014
     75  C        -24.2890  -24.5360   32.9710 C.2   242  GLY242      0.2638
     76  O        -25.3940  -24.6440   33.5050 O.2   242  GLY242     -0.2714
     77  N        -24.0190  -25.0370   31.7640 N.am  243  LEU243     -0.1977
     78  CA       -25.0130  -25.7960   30.9870 C.3   243  LEU243      0.1596
     79  C        -25.2980  -27.1500   31.6270 C.2   243  LEU243      0.2287
     80  O        -24.4200  -27.7460   32.2540 O.2   243  LEU243     -0.2864
     81  CB       -24.5170  -26.0440   29.5550 C.3   243  LEU243      0.0297
     82  CG       -24.3410  -24.8110   28.6620 C.3   243  LEU243      0.0022
     83  CD1      -23.5950  -25.2030   27.3970 C.3   243  LEU243      0.0001
     84  CD2      -25.7070  -24.2030   28.3450 C.3   243  LEU243      0.0001
     85  N        -28.2600  -19.3370   40.5320 N.3   368  LEU368     -0.1245
     86  CA       -27.7010  -19.1360   39.2010 C.3   368  LEU368      0.1561
     87  C        -26.6260  -18.0980   39.4660 C.2   368  LEU368      0.2260
     88  O        -26.7930  -17.2480   40.3370 O.2   368  LEU368     -0.2867
     89  CB       -28.7550  -18.5840   38.2270 C.3   368  LEU368      0.0270
     90  CG       -28.2150  -18.1680   36.8430 C.3   368  LEU368      0.0019
     91  CD1      -29.0200  -18.8160   35.7200 C.3   368  LEU368      0.0001
     92  CD2      -28.2340  -16.6520   36.7340 C.3   368  LEU368      0.0001
     93  N        -26.7230  -22.7580   37.0340 N.3   387  GLY387     -0.1210
     94  CA       -26.5430  -22.1440   35.7310 C.3   387  GLY387      0.1956
     95  C        -25.5440  -21.0240   35.9100 C.2   387  GLY387      0.2612
     96  O        -25.3650  -20.5470   37.0300 O.2   387  GLY387     -0.2717
     97  N        -24.8830  -20.6060   34.8350 N.am  388  LEU388     -0.1965
     98  CA       -23.9110  -19.5220   34.9330 C.3   388  LEU388      0.1728
     99  C        -23.8420  -18.6780   33.6730 C.2   388  LEU388      0.2616
    100  O        -23.7610  -19.2190   32.5710 O.2   388  LEU388     -0.2715
    101  CB       -22.5140  -20.0780   35.2240 C.3   388  LEU388      0.0311
    102  CG       -21.3750  -19.0540   35.3360 C.3   388  LEU388      0.0022
    103  CD1      -20.2290  -19.6530   36.1170 C.3   388  LEU388      0.0001
    104  CD2      -20.9060  -18.6230   33.9540 C.3   388  LEU388      0.0001
    105  N        -23.8860  -17.3550   33.8260 N.am  389  MET389     -0.1963
    106  CA       -23.7650  -16.4800   32.6700 C.3   389  MET389      0.1736
    107  C        -22.5780  -15.5550   32.8460 C.2   389  MET389      0.2616
    108  O        -22.3780  -14.9390   33.8950 O.2   389  MET389     -0.2715
    109  CB       -25.0580  -15.6990   32.3980 C.3   389  MET389      0.0427
    110  CG       -25.6660  -14.9760   33.5560 C.3   389  MET389      0.0599
    111  SD       -27.1580  -14.1230   32.9910 S.3   389  MET389     -0.1393
    112  CE       -28.2630  -15.4410   32.9000 C.3   389  MET389      0.0692
    113  N        -21.7670  -15.4850   31.8040 N.am  390  ALA390     -0.1977
    114  CA       -20.5630  -14.6860   31.8400 C.3   390  ALA390      0.1597
    115  C        -20.1140  -14.3860   30.4250 C.2   390  ALA390      0.2287
    116  O        -20.4480  -15.1090   29.4840 O.2   390  ALA390     -0.2864
    117  CB       -19.4660  -15.4600   32.5780 C.3   390  ALA390      0.0319
@<TRIPOS>BOND
     1    18    16    1
     2    34    35    1
     3    34    31    1
     4    33    32    2
     5    32    31    1
     6    35    36    1
     7    31    30    1
     8    14    15    2
     9    14    13    1
    10    16    13    1
    11    16    17    1
    12    36    37    1
    13    13    12    1
    14    37    38    2
    15    30    21   am
    16    19    20    1
    17    21    22    2
    18    21    20    1
    19    38    40    1
    20    38    39    1
    21    55    54    1
    22    55    56    1
    23    54    51    1
    24    56    57    1
    25    20    23    1
    26    41    42    1
    27    23    24    1
    28    11     9    1
    29    51    50    1
    30    51    52    1
    31    83    82    1
    32    42    43    1
    33    42    45    1
    34    58    52   am
    35    58    59    1
    36     9     8    2
    37     9    10    1
    38    52    53    2
    39    24    25    1
    40     8     7    1
    41    43    44    2
    42    59    60    1
    43     6     7    1
    44     6     5    1
    45     1     2    1
    46    84    82    1
    47     2     5    1
    48     2     3    1
    49    46    45    1
    50    46    47    1
    51    82    81    1
    52    25    26    1
    53   116   115    2
    54    60    61    2
    55    60    62   am
    56    81    78    1
    57     4     3    2
    58    47    48   ar
    59    47    49   ar
    60    26    27    2
    61    62    63    1
    62   115   114    1
    63    78    79    1
    64    78    77    1
    65    27    28    1
    66    27    29    1
    67    79    80    2
    68    77    75   am
    69    63    64    1
    70    63    66    1
    71   113   114    1
    72   113   107   am
    73   114   117    1
    74    65    64    2
    75    64    73   am
    76   109   106    1
    77   109   110    1
    78    66    67    1
    79   100    99    2
    80   106   107    1
    81   106   105    1
    82   107   108    2
    83   112   111    1
    84    75    76    2
    85    75    74    1
    86   111   110    1
    87    73    74    1
    88    99   105   am
    89    99    98    1
    90   104   102    1
    91    67    68    1
    92    68    69    1
    93    97    98    1
    94    97    95   am
    95    98   101    1
    96   101   102    1
    97   102   103    1
    98    91    90    1
    99    94    95    1
   100    94    93    1
   101    95    96    2
   102    69    70    2
   103    71    70    1
   104    70    72    1
   105    92    90    1
   106    90    89    1
   107    89    86    1
   108    86    87    1
   109    86    85    1
   110    87    88    2
