@<TRIPOS>MOLECULE
tmp/2q5oA04.pdb
 97 92 0 0 0
SMALL
GASTEIGER

@<TRIPOS>ATOM
      1  N        -15.5700  -23.6120   27.9310 N.3   238  PHE238     -0.1241
      2  CA       -15.3860  -22.5720   28.9350 C.3   238  PHE238      0.1605
      3  C        -16.6010  -21.6460   28.8010 C.2   238  PHE238      0.2264
      4  O        -17.2420  -21.2770   29.7840 O.2   238  PHE238     -0.2867
      5  CB       -14.1050  -21.8050   28.6280 C.3   238  PHE238      0.0534
      6  CG       -13.8230  -20.6760   29.5760 C.ar  238  PHE238     -0.0203
      7  CD1      -13.3780  -20.9300   30.8760 C.ar  238  PHE238     -0.0042
      8  CD2      -13.9470  -19.3540   29.1530 C.ar  238  PHE238     -0.0042
      9  CE1      -13.0550  -19.8840   31.7320 C.ar  238  PHE238     -0.0003
     10  CE2      -13.6260  -18.3020   30.0070 C.ar  238  PHE238     -0.0003
     11  CZ       -13.1780  -18.5680   31.3000 C.ar  238  PHE238     -0.0000
     12  N        -10.7970  -18.4700   20.9900 N.3   283  ASP283     -0.1225
     13  CA        -9.5050  -18.6920   21.6080 C.3   283  ASP283      0.1805
     14  C         -9.7330  -19.0370   23.0840 C.2   283  ASP283      0.2598
     15  O         -9.0280  -19.8730   23.6490 O.2   283  ASP283     -0.2718
     16  CB        -8.6060  -17.4420   21.4630 C.3   283  ASP283      0.1424
     17  CG        -9.3030  -16.1410   21.8780 C.2   283  ASP283      0.3668
     18  OD1      -10.4560  -16.1820   22.3470 O.co2 283  ASP283     -0.2456
     19  OD2       -8.6920  -15.0680   21.7340 O.co2 283  ASP283     -0.2456
     20  N        -10.7400  -18.4180   23.6950 N.am  284  THR284     -0.1953
     21  CA       -11.0430  -18.6680   25.0960 C.3   284  THR284      0.1897
     22  C        -11.4700  -20.1140   25.3180 C.2   284  THR284      0.2313
     23  O        -11.2600  -20.6650   26.3960 O.2   284  THR284     -0.2863
     24  CB       -12.1570  -17.7110   25.6280 C.3   284  THR284      0.1794
     25  OG1      -13.3720  -17.8970   24.8800 O.3   284  THR284     -0.2208
     26  CG2      -11.7090  -16.2530   25.5000 C.3   284  THR284      0.0378
     27  N        -15.9160  -10.3060   34.0100 N.3   373  MET373     -0.1245
     28  CA       -14.6400  -10.8200   33.5300 C.3   373  MET373      0.1570
     29  C        -13.5410  -10.4330   34.5140 C.2   373  MET373      0.2261
     30  O        -13.4970   -9.2950   34.9860 O.2   373  MET373     -0.2867
     31  CB       -14.3180  -10.2700   32.1420 C.3   373  MET373      0.0387
     32  CG       -12.9410  -10.7020   31.6320 C.3   373  MET373      0.0595
     33  SD       -12.6150  -12.4910   31.7470 S.3   373  MET373     -0.1393
     34  CE       -13.1930  -13.0610   30.1400 C.3   373  MET373      0.0692
     35  N        -12.8810  -17.1030   36.5910 N.3   378  PHE378     -0.1241
     36  CA       -12.1100  -18.3260   36.6880 C.3   378  PHE378      0.1605
     37  C        -12.3280  -18.9940   38.0350 C.2   378  PHE378      0.2264
     38  O        -12.0810  -20.1920   38.1940 O.2   378  PHE378     -0.2867
     39  CB       -10.6430  -18.0160   36.4350 C.3   378  PHE378      0.0534
     40  CG       -10.3810  -17.5790   35.0370 C.ar  378  PHE378     -0.0203
     41  CD1      -10.1210  -18.5150   34.0430 C.ar  378  PHE378     -0.0042
     42  CD2      -10.4650  -16.2340   34.6880 C.ar  378  PHE378     -0.0042
     43  CE1       -9.9490  -18.1200   32.7170 C.ar  378  PHE378     -0.0003
     44  CE2      -10.2950  -15.8260   33.3620 C.ar  378  PHE378     -0.0003
     45  CZ       -10.0370  -16.7750   32.3760 C.ar  378  PHE378     -0.0000
     46  N        -15.6660  -11.4000   26.5070 N.3   395  ALA395     -0.1245
     47  CA       -14.8010  -11.0100   27.6170 C.3   395  ALA395      0.1562
     48  C        -14.7650   -9.5200   27.9550 C.2   395  ALA395      0.2260
     49  O        -13.7330   -9.0050   28.3660 O.2   395  ALA395     -0.2867
     50  CB       -13.3800  -11.5110   27.3490 C.3   395  ALA395      0.0290
     51  N         -5.9220   -9.6950   36.5040 N.3   454  MET454     -0.1230
     52  CA        -5.7340  -10.4760   35.2890 C.3   454  MET454      0.1702
     53  C         -4.6560   -9.8420   34.4240 C.2   454  MET454      0.2592
     54  O         -3.8070  -10.5430   33.8600 O.2   454  MET454     -0.2718
     55  CB        -7.0370  -10.5720   34.4930 C.3   454  MET454      0.0401
     56  CG        -7.5040  -11.9930   34.2390 C.3   454  MET454      0.0596
     57  SD        -8.8320  -12.1140   33.0040 S.3   454  MET454     -0.1393
     58  CE        -8.0610  -13.1650   31.7620 C.3   454  MET454      0.0692
     59  N         -4.6750   -8.5140   34.3200 N.am  455  LEU455     -0.1980
     60  CA        -3.6740   -7.8200   33.4980 C.3   455  LEU455      0.1596
     61  C         -2.2720   -7.8460   34.1240 C.2   455  LEU455      0.2287
     62  O         -1.2700   -7.8720   33.4110 O.2   455  LEU455     -0.2864
     63  CB        -4.1010   -6.3730   33.2320 C.3   455  LEU455      0.0297
     64  CG        -5.3740   -6.2060   32.4010 C.3   455  LEU455      0.0022
     65  CD1       -5.5450   -4.7380   32.0770 C.3   455  LEU455      0.0001
     66  CD2       -5.2950   -7.0470   31.1020 C.3   455  LEU455      0.0001
     67  N         -0.7630  -10.9570   33.4560 N.3   458  PHE458     -0.1241
     68  CA        -0.3430  -10.9680   32.0570 C.3   458  PHE458      0.1605
     69  C          0.9880  -10.2650   31.8130 C.2   458  PHE458      0.2264
     70  O          1.7610  -10.6660   30.9490 O.2   458  PHE458     -0.2867
     71  CB        -1.4170  -10.2850   31.2030 C.3   458  PHE458      0.0534
     72  CG        -2.2000  -11.2260   30.3340 C.ar  458  PHE458     -0.0203
     73  CD1       -1.6680  -11.6950   29.1380 C.ar  458  PHE458     -0.0042
     74  CD2       -3.4770  -11.6330   30.7040 C.ar  458  PHE458     -0.0042
     75  CE1       -2.3970  -12.5550   28.3210 C.ar  458  PHE458     -0.0003
     76  CE2       -4.2130  -12.4940   29.8940 C.ar  458  PHE458     -0.0003
     77  CZ        -3.6710  -12.9540   28.6990 C.ar  458  PHE458     -0.0000
     78  N         -4.4120  -20.3820   32.7170 N.3   525  PHE525     -0.1241
     79  CA        -5.1390  -19.8780   31.5530 C.3   525  PHE525      0.1605
     80  C         -4.3680  -18.7650   30.8550 C.2   525  PHE525      0.2264
     81  O         -4.2090  -18.7780   29.6330 O.2   525  PHE525     -0.2867
     82  CB        -6.5050  -19.3340   31.9550 C.3   525  PHE525      0.0534
     83  CG        -7.2780  -18.7320   30.8070 C.ar  525  PHE525     -0.0203
     84  CD1       -8.1660  -19.5050   30.0660 C.ar  525  PHE525     -0.0042
     85  CD2       -7.1070  -17.3910   30.4600 C.ar  525  PHE525     -0.0042
     86  CE1       -8.8770  -18.9550   28.9970 C.ar  525  PHE525     -0.0003
     87  CE2       -7.8110  -16.8320   29.3930 C.ar  525  PHE525     -0.0003
     88  CZ        -8.6970  -17.6150   28.6610 C.ar  525  PHE525     -0.0000
     89  N         -2.7110  -18.6650   26.9650 N.3   529  GLN529     -0.1245
     90  CA        -2.9410  -17.6630   25.9340 C.3   529  GLN529      0.1566
     91  C         -1.6030  -17.1400   25.4100 C.2   529  GLN529      0.2260
     92  O         -1.4670  -17.0370   24.1760 O.2   529  GLN529     -0.2867
     93  CB        -3.7780  -16.5100   26.4970 C.3   529  GLN529      0.0367
     94  CG        -5.1150  -16.9490   27.0920 C.3   529  GLN529      0.0905
     95  CD        -6.0840  -17.4740   26.0500 C.2   529  GLN529      0.2608
     96  OE1       -7.0980  -18.0790   26.3870 O.2   529  GLN529     -0.2717
     97  NE2       -5.7800  -17.2370   24.7780 N.am  529  GLN529     -0.0878
@<TRIPOS>BOND
     1    12    13    1
     2    16    13    1
     3    16    17    1
     4    13    14    1
     5    19    17   ar
     6    17    18   ar
     7    14    15    2
     8    14    20   am
     9    20    21    1
    10    92    91    2
    11    97    95   am
    12    25    24    1
    13    21    22    1
    14    21    24    1
    15    22    23    2
    16    91    90    1
    17    26    24    1
    18    90    93    1
    19    90    89    1
    20    95    96    2
    21    95    94    1
    22    93    94    1
    23    46    47    1
    24    50    47    1
    25    47    48    1
    26     1     2    1
    27    48    49    2
    28    75    77   ar
    29    75    73   ar
    30     5     2    1
    31     5     6    1
    32    88    86   ar
    33    88    87   ar
    34    77    76   ar
    35     3     2    1
    36     3     4    2
    37    86    84   ar
    38    73    72   ar
    39     8     6   ar
    40     8    10   ar
    41    87    85   ar
    42     6     7   ar
    43    81    80    2
    44    76    74   ar
    45    10    11   ar
    46    84    83   ar
    47    34    33    1
    48    72    74   ar
    49    72    71    1
    50    85    83   ar
    51    83    82    1
    52    80    79    1
    53     7     9   ar
    54    70    69    2
    55    66    64    1
    56    71    68    1
    57    11     9   ar
    58    79    82    1
    59    79    78    1
    60    32    33    1
    61    32    31    1
    62    58    57    1
    63    69    68    1
    64    68    67    1
    65    65    64    1
    66    31    28    1
    67    45    43   ar
    68    45    44   ar
    69    64    63    1
    70    43    41   ar
    71    57    56    1
    72    63    60    1
    73    44    42   ar
    74    62    61    2
    75    60    61    1
    76    60    59    1
    77    28    27    1
    78    28    29    1
    79    54    53    2
    80    41    40   ar
    81    56    55    1
    82    59    53   am
    83    53    52    1
    84    55    52    1
    85    29    30    2
    86    42    40   ar
    87    40    39    1
    88    52    51    1
    89    39    36    1
    90    35    36    1
    91    36    37    1
    92    37    38    2
