@<TRIPOS>MOLECULE
tmp/2q5pA00.pdb
 245 234 0 0 0
SMALL
GASTEIGER

@<TRIPOS>ATOM
      1  N        -10.8470   56.9120   73.0180 N.3    20  PHE20      -0.1241
      2  CA        -9.6820   56.9900   72.1210 C.3    20  PHE20       0.1605
      3  C        -10.1260   57.1790   70.6860 C.2    20  PHE20       0.2264
      4  O        -10.5520   56.2260   70.0470 O.2    20  PHE20      -0.2867
      5  CB        -8.8000   55.7290   72.2270 C.3    20  PHE20       0.0534
      6  CG        -8.3760   55.4090   73.6320 C.ar   20  PHE20      -0.0203
      7  CD1       -7.4510   56.2080   74.2920 C.ar   20  PHE20      -0.0042
      8  CD2       -8.9150   54.3200   74.2970 C.ar   20  PHE20      -0.0042
      9  CE1       -7.0680   55.9290   75.5970 C.ar   20  PHE20      -0.0003
     10  CE2       -8.5380   54.0150   75.6090 C.ar   20  PHE20      -0.0003
     11  CZ        -7.6110   54.8180   76.2590 C.ar   20  PHE20      -0.0000
     12  N         -8.6030   57.6320   67.8140 N.3    22  LEU22      -0.1245
     13  CA        -7.9190   56.9040   66.7510 C.3    22  LEU22       0.1561
     14  C         -7.6240   55.4620   67.1830 C.2    22  LEU22       0.2260
     15  O         -6.6810   55.1960   67.9220 O.2    22  LEU22      -0.2867
     16  CB        -6.6370   57.6440   66.3180 C.3    22  LEU22       0.0270
     17  CG        -5.8120   57.1320   65.1250 C.3    22  LEU22       0.0019
     18  CD1       -6.6230   57.0390   63.8570 C.3    22  LEU22       0.0001
     19  CD2       -4.6060   58.0290   64.9030 C.3    22  LEU22       0.0001
     20  N          9.4150   68.8390   67.0510 N.3    61  ILE61      -0.1245
     21  CA         8.8420   67.4960   66.9880 C.3    61  ILE61       0.1561
     22  C          8.7370   66.8880   68.3930 C.2    61  ILE61       0.2260
     23  O          7.7560   66.2050   68.7060 O.2    61  ILE61      -0.2867
     24  CB         9.6670   66.5720   66.0590 C.3    61  ILE61       0.0252
     25  CG1        9.6030   67.0800   64.6130 C.3    61  ILE61       0.0019
     26  CG2        9.1820   65.1180   66.1540 C.3    61  ILE61       0.0019
     27  CD1       10.3650   66.2260   63.6150 C.3    61  ILE61       0.0001
     28  N          5.8600   68.3570   70.0430 N.3    64  GLY64      -0.1210
     29  CA         4.7290   67.7160   69.3860 C.3    64  GLY64       0.1956
     30  C          4.2950   66.4500   70.0950 C.2    64  GLY64       0.2612
     31  O          3.1190   66.3180   70.4470 O.2    64  GLY64      -0.2717
     32  N          5.2380   65.5300   70.3270 N.am   65  CYS65      -0.1970
     33  CA         4.9880   64.2400   71.0040 C.3    65  CYS65       0.1712
     34  C          4.6250   64.4410   72.4630 C.2    65  CYS65       0.2296
     35  O          3.8500   63.6740   73.0480 O.2    65  CYS65      -0.2864
     36  CB         6.2360   63.3510   70.9750 C.3    65  CYS65       0.0983
     37  SG         6.9660   63.0500   69.3710 S.3    65  CYS65      -0.0798
     38  N          3.0870   67.0470   73.6700 N.3    67  PHE67      -0.1227
     39  CA         1.6920   67.4780   73.6440 C.3    67  PHE67       0.1736
     40  C          0.7270   66.3170   73.3860 C.2    67  PHE67       0.2595
     41  O         -0.3390   66.2490   74.0010 O.2    67  PHE67      -0.2718
     42  CB         1.4960   68.6070   72.6180 C.3    67  PHE67       0.0547
     43  CG         0.0530   68.9320   72.3300 C.ar   67  PHE67      -0.0202
     44  CD1       -0.7420   69.5560   73.2900 C.ar   67  PHE67      -0.0042
     45  CD2       -0.5110   68.6120   71.0960 C.ar   67  PHE67      -0.0042
     46  CE1       -2.0760   69.8550   73.0270 C.ar   67  PHE67      -0.0003
     47  CE2       -1.8420   68.9060   70.8250 C.ar   67  PHE67      -0.0003
     48  CZ        -2.6250   69.5320   71.7910 C.ar   67  PHE67      -0.0000
     49  N          1.0990   65.4110   72.4840 N.am   68  ARG68      -0.1966
     50  CA         0.3050   64.2080   72.2470 C.3    68  ARG68       0.1729
     51  C          0.2160   63.3140   73.4790 C.2    68  ARG68       0.2616
     52  O         -0.8450   62.7680   73.7630 O.2    68  ARG68      -0.2715
     53  CB         0.8370   63.3970   71.0580 C.3    68  ARG68       0.0348
     54  CG         0.1850   63.7190   69.7170 C.3    68  ARG68       0.0492
     55  CD        -1.3520   63.5510   69.7170 C.3    68  ARG68       0.2205
     56  NE        -1.8080   62.3500   70.4240 N.pl3  68  ARG68      -0.0865
     57  CZ        -3.0860   62.0580   70.6730 C.cat  68  ARG68       0.5346
     58  NH1       -4.0680   62.8620   70.2780 N.pl3  68  ARG68       0.1354
     59  NH2       -3.3910   60.9560   71.3320 N.pl3  68  ARG68       0.1354
     60  N          1.3300   63.1630   74.1990 N.am   69  SER69      -0.1950
     61  CA         1.3390   62.3910   75.4460 C.3    69  SER69       0.1924
     62  C          0.3430   62.9430   76.4450 C.2    69  SER69       0.2314
     63  O         -0.3440   62.1730   77.0950 O.2    69  SER69      -0.2863
     64  CB         2.7260   62.3430   76.0850 C.3    69  SER69       0.2116
     65  OG         3.6350   61.7200   75.2130 O.3    69  SER69      -0.2180
     66  N         -2.9740   61.9890   75.3920 N.3    72  ALA72      -0.1245
     67  CA        -3.0680   60.5610   75.6590 C.3    72  ALA72       0.1562
     68  C         -3.3630   60.2900   77.1320 C.2    72  ALA72       0.2260
     69  O         -4.2390   59.4930   77.4470 O.2    72  ALA72      -0.2867
     70  CB        -1.8000   59.8570   75.2230 C.3    72  ALA72       0.0290
     71  N         -6.9970   61.1300   77.6220 N.3    75  GLU75      -0.1231
     72  CA        -7.8260   60.0220   77.1360 C.3    75  GLU75       0.1699
     73  C         -7.7610   58.7890   78.0370 C.2    75  GLU75       0.2592
     74  O         -8.7980   58.1650   78.3280 O.2    75  GLU75      -0.2718
     75  CB        -7.4300   59.6360   75.7080 C.3    75  GLU75       0.0402
     76  CG        -7.7190   60.7020   74.6670 C.3    75  GLU75       0.1161
     77  CD        -6.8150   60.6030   73.4540 C.2    75  GLU75       0.3649
     78  OE1       -6.2720   59.5010   73.1800 O.co2  75  GLU75      -0.2457
     79  OE2       -6.6460   61.6380   72.7700 O.co2  75  GLU75      -0.2457
     80  N         -6.5510   58.4410   78.4830 N.am   76  ILE76      -0.1980
     81  CA        -6.3500   57.2850   79.3540 C.3    76  ILE76       0.1595
     82  C         -7.0560   57.4810   80.6870 C.2    76  ILE76       0.2287
     83  O         -7.6990   56.5720   81.2000 O.2    76  ILE76      -0.2864
     84  CB        -4.8450   56.9910   79.6010 C.3    76  ILE76       0.0276
     85  CG1       -4.1850   56.4590   78.3300 C.3    76  ILE76       0.0022
     86  CG2       -4.6550   55.9910   80.7440 C.3    76  ILE76       0.0022
     87  CD1       -4.8230   55.2030   77.8050 C.3    76  ILE76       0.0001
     88  N          2.0820   55.5290   80.9410 N.3   103  HIS103     -0.1241
     89  CA         3.0950   55.4190   79.8950 C.3   103  HIS103      0.1621
     90  C          3.2230   54.0240   79.2990 C.2   103  HIS103      0.2264
     91  O          3.5370   53.8900   78.1170 O.2   103  HIS103     -0.2867
     92  CB         4.4410   55.9770   80.3510 C.3   103  HIS103      0.0745
     93  CG         4.5060   57.4670   80.2850 C.ar  103  HIS103      0.0817
     94  ND1        4.4210   58.2670   81.4050 N.ar  103  HIS103     -0.2268
     95  CD2        4.5950   58.3070   79.2260 C.ar  103  HIS103      0.1154
     96  CE1        4.4720   59.5350   81.0390 C.ar  103  HIS103      0.1986
     97  NE2        4.5800   59.5870   79.7230 N.ar  103  HIS103     -0.2212
     98  N          0.4410   54.2310   76.9420 N.3   106  ILE106     -0.1231
     99  CA         0.7650   55.0540   75.7870 C.3   106  ILE106      0.1692
    100  C          1.5520   54.2270   74.7560 C.2   106  ILE106      0.2592
    101  O          1.1970   54.2410   73.5970 O.2   106  ILE106     -0.2718
    102  CB         1.4810   56.3670   76.1840 C.3   106  ILE106      0.0266
    103  CG1        0.4660   57.3360   76.7940 C.3   106  ILE106      0.0019
    104  CG2        2.1370   57.0110   74.9770 C.3   106  ILE106      0.0020
    105  CD1        1.0660   58.3800   77.7210 C.3   106  ILE106      0.0001
    106  N          2.5590   53.4680   75.1880 N.am  107  TYR107     -0.1976
    107  CA         3.3900   52.6900   74.2460 C.3   107  TYR107      0.1639
    108  C          2.6620   51.5080   73.6140 C.2   107  TYR107      0.2290
    109  O          2.9790   51.1250   72.4980 O.2   107  TYR107     -0.2864
    110  CB         4.7040   52.2000   74.8880 C.3   107  TYR107      0.0560
    111  CG         5.4130   53.2070   75.7570 C.ar  107  TYR107     -0.0198
    112  CD1        5.5730   54.5430   75.3490 C.ar  107  TYR107     -0.0009
    113  CD2        5.9540   52.8210   76.9910 C.ar  107  TYR107     -0.0009
    114  CE1        6.2310   55.4740   76.1650 C.ar  107  TYR107      0.0417
    115  CE2        6.6130   53.7410   77.8050 C.ar  107  TYR107      0.0417
    116  CZ         6.7460   55.0600   77.3850 C.ar  107  TYR107      0.1957
    117  OH         7.3890   55.9570   78.2060 O.3   107  TYR107     -0.2866
    118  N         -0.5830   51.5000   72.8820 N.3   109  MET109     -0.1230
    119  CA        -1.4910   52.0810   71.9390 C.3   109  MET109      0.1702
    120  C         -0.8130   52.8250   70.8090 C.2   109  MET109      0.2592
    121  O         -1.3170   52.8530   69.7010 O.2   109  MET109     -0.2718
    122  CB        -2.4830   52.9310   72.6900 C.3   109  MET109      0.0401
    123  CG        -3.4910   51.9990   73.3390 C.3   109  MET109      0.0596
    124  SD        -4.7760   52.9510   73.9840 S.3   109  MET109     -0.1393
    125  CE        -5.7520   53.3230   72.5280 C.3   109  MET109      0.0692
    126  N          0.3420   53.3980   71.0990 N.am  110  LEU110     -0.1980
    127  CA         1.2270   53.9230   70.0780 C.3   110  LEU110      0.1596
    128  C          1.6100   52.8510   69.0440 C.2   110  LEU110      0.2287
    129  O          1.6740   53.1650   67.8700 O.2   110  LEU110     -0.2864
    130  CB         2.4760   54.5410   70.7300 C.3   110  LEU110      0.0297
    131  CG         3.5410   55.1470   69.8070 C.3   110  LEU110      0.0022
    132  CD1        2.9480   56.3040   68.9980 C.3   110  LEU110      0.0001
    133  CD2        4.7550   55.5950   70.6220 C.3   110  LEU110      0.0001
    134  N         -0.4000   52.6260   65.9670 N.3   113  LEU113     -0.1245
    135  CA        -0.1810   53.6730   64.9680 C.3   113  LEU113      0.1561
    136  C          1.1200   53.4580   64.1890 C.2   113  LEU113      0.2260
    137  O          1.4820   54.2590   63.3300 O.2   113  LEU113     -0.2867
    138  CB        -0.1440   55.0430   65.6500 C.3   113  LEU113      0.0270
    139  CG        -1.2320   55.3270   66.6840 C.3   113  LEU113      0.0019
    140  CD1       -1.1280   56.7740   67.1640 C.3   113  LEU113      0.0001
    141  CD2       -2.6250   55.0340   66.1260 C.3   113  LEU113      0.0001
    142  N          5.3430   56.0870   61.8810 N.3   119  VAL119     -0.1231
    143  CA         4.2160   56.2750   62.7860 C.3   119  VAL119      0.1692
    144  C          3.2410   57.3010   62.2380 C.2   119  VAL119      0.2592
    145  O          3.6510   58.3190   61.6860 O.2   119  VAL119     -0.2718
    146  CB         4.6950   56.6630   64.2200 C.3   119  VAL119      0.0266
    147  CG1        5.4690   58.0190   64.2350 C.3   119  VAL119      0.0020
    148  CG2        3.5520   56.6800   65.2080 C.3   119  VAL119      0.0020
    149  N          1.9590   57.0120   62.4060 N.am  120  LEU120     -0.1966
    150  CA         0.8800   57.9600   62.1290 C.3   120  LEU120      0.1728
    151  C          0.9390   59.1870   63.0510 C.2   120  LEU120      0.2616
    152  O          1.1770   59.0560   64.2410 O.2   120  LEU120     -0.2715
    153  CB        -0.4580   57.2640   62.3120 C.3   120  LEU120      0.0311
    154  CG        -0.8570   56.2800   61.2210 C.3   120  LEU120      0.0022
    155  CD1       -2.2380   55.7590   61.5470 C.3   120  LEU120      0.0001
    156  CD2       -0.8440   56.9470   59.8330 C.3   120  LEU120      0.0001
    157  N          0.7260   60.3730   62.4880 N.am  121  ILE121     -0.1963
    158  CA         0.7310   61.6070   63.2720 C.3   121  ILE121      0.1727
    159  C         -0.4820   62.4810   62.9290 C.2   121  ILE121      0.2617
    160  O         -1.1960   62.1980   61.9700 O.2   121  ILE121     -0.2715
    161  CB         2.0650   62.4030   63.1190 C.3   121  ILE121      0.0290
    162  CG1        2.3120   62.8010   61.6640 C.3   121  ILE121      0.0022
    163  CG2        3.2590   61.6210   63.7000 C.3   121  ILE121      0.0023
    164  CD1        3.4390   63.8160   61.4990 C.3   121  ILE121      0.0001
    165  N         -0.7100   63.5320   63.7180 N.am  122  SER122     -0.1936
    166  CA        -1.8690   64.4230   63.5610 C.3   122  SER122      0.2055
    167  C         -3.1530   63.6440   63.2870 C.2   122  SER122      0.2642
    168  O         -3.7620   63.8090   62.2280 O.2   122  SER122     -0.2714
    169  CB        -1.6540   65.4570   62.4420 C.3   122  SER122      0.2130
    170  OG        -0.2860   65.6140   62.1180 O.3   122  SER122     -0.2179
    171  N         -3.5400   62.7900   64.2350 N.am  123  GLU123     -0.1976
    172  CA        -4.7480   61.9640   64.1310 C.3   123  GLU123      0.1602
    173  C         -4.8420   61.1890   62.8090 C.2   123  GLU123      0.2287
    174  O         -5.9010   61.1400   62.1960 O.2   123  GLU123     -0.2864
    175  CB        -6.0100   62.8240   64.3370 C.3   123  GLU123      0.0415
    176  CG        -6.2090   63.3630   65.7560 C.3   123  GLU123      0.1163
    177  CD        -7.2830   62.6070   66.5550 C.2   123  GLU123      0.3649
    178  OE1       -7.3560   62.8020   67.8000 O.co2 123  GLU123     -0.2457
    179  OE2       -8.0650   61.8350   65.9430 O.co2 123  GLU123     -0.2457
    180  N          5.0560   59.9590   59.8890 N.3   128  MET128     -0.1245
    181  CA         6.4740   60.2580   60.0210 C.3   128  MET128      0.1570
    182  C          7.2500   58.9500   60.0000 C.2   128  MET128      0.2261
    183  O          6.9190   58.0130   60.7250 O.2   128  MET128     -0.2867
    184  CB         6.7240   61.0340   61.3110 C.3   128  MET128      0.0387
    185  CG         8.0990   61.6230   61.4500 C.3   128  MET128      0.0595
    186  SD         8.0830   62.9210   62.6960 S.3   128  MET128     -0.1393
    187  CE         7.6000   64.3430   61.7170 C.3   128  MET128      0.0692
    188  N         12.7970   60.0990   62.1030 N.3   133  LEU133     -0.1245
    189  CA        12.8710   60.2060   63.5590 C.3   133  LEU133      0.1561
    190  C         14.2440   59.7830   64.0870 C.2   133  LEU133      0.2260
    191  O         14.7700   60.3810   65.0260 O.2   133  LEU133     -0.2867
    192  CB        11.7770   59.3550   64.2100 C.3   133  LEU133      0.0270
    193  CG        10.3590   59.9150   64.1640 C.3   133  LEU133      0.0019
    194  CD1        9.3420   58.7890   64.2340 C.3   133  LEU133      0.0001
    195  CD2       10.1520   60.9090   65.2970 C.3   133  LEU133      0.0001
    196  N         14.6720   58.8460   70.8700 N.3   143  PHE143     -0.1227
    197  CA        13.4180   58.7460   71.5970 C.3   143  PHE143      0.1736
    198  C         12.5210   57.6180   71.1190 C.2   143  PHE143      0.2595
    199  O         12.0590   56.8200   71.9320 O.2   143  PHE143     -0.2718
    200  CB        12.6750   60.0900   71.6440 C.3   143  PHE143      0.0547
    201  CG        13.0630   60.9450   72.8280 C.ar  143  PHE143     -0.0202
    202  CD1       12.5590   60.6700   74.0960 C.ar  143  PHE143     -0.0042
    203  CD2       13.9530   62.0050   72.6810 C.ar  143  PHE143     -0.0042
    204  CE1       12.9190   61.4440   75.1920 C.ar  143  PHE143     -0.0003
    205  CE2       14.3200   62.7850   73.7730 C.ar  143  PHE143     -0.0003
    206  CZ        13.8030   62.5020   75.0330 C.ar  143  PHE143     -0.0000
    207  N         12.3320   57.5140   69.8060 N.am  144  MET144     -0.1979
    208  CA        11.2820   56.6560   69.2590 C.3   144  MET144      0.1605
    209  C         11.6830   55.2110   68.9810 C.2   144  MET144      0.2287
    210  O         10.8350   54.3140   69.0240 O.2   144  MET144     -0.2864
    211  CB        10.6480   57.2970   68.0270 C.3   144  MET144      0.0413
    212  CG         9.7950   58.5270   68.3570 C.3   144  MET144      0.0598
    213  SD         8.3840   58.1860   69.4430 S.3   144  MET144     -0.1393
    214  CE         7.4380   57.1460   68.3540 C.3   144  MET144      0.0692
    215  N         10.3240   52.3620   71.0540 N.3   147  LYS147     -0.1245
    216  CA         8.8760   52.2280   70.8420 C.3   147  LYS147      0.1561
    217  C          8.5780   51.4790   69.5400 C.2   147  LYS147      0.2260
    218  O          7.6880   50.6310   69.5100 O.2   147  LYS147     -0.2867
    219  CB         8.1580   53.5890   70.8960 C.3   147  LYS147      0.0271
    220  CG         8.0820   54.2180   72.3170 C.3   147  LYS147      0.0035
    221  CD         9.2900   55.0980   72.6180 C.3   147  LYS147      0.0206
    222  CE         9.2560   55.6830   74.0250 C.3   147  LYS147      0.1093
    223  NZ        10.6350   56.1110   74.4330 N.3   147  LYS147     -0.1314
    224  N         12.8500   55.8070   78.5460 N.3   229  HIS229     -0.1241
    225  CA        12.2780   57.0890   78.1780 C.3   229  HIS229      0.1621
    226  C         12.6000   58.1750   79.2170 C.2   229  HIS229      0.2264
    227  O         13.0390   59.2740   78.8610 O.2   229  HIS229     -0.2867
    228  CB        10.7710   56.9610   77.9340 C.3   229  HIS229      0.0745
    229  CG        10.1380   58.2250   77.4560 C.ar  229  HIS229      0.0817
    230  ND1        9.4230   59.0580   78.2890 N.ar  229  HIS229     -0.2268
    231  CD2       10.1450   58.8200   76.2420 C.ar  229  HIS229      0.1154
    232  CE1        8.9990   60.1040   77.6030 C.ar  229  HIS229      0.1986
    233  NE2        9.4250   59.9840   76.3590 N.ar  229  HIS229     -0.2212
    234  N          6.3260   61.5750   85.9310 N.3   253  TYR253     -0.1241
    235  CA         7.6960   61.0420   85.9110 C.3   253  TYR253      0.1605
    236  C          8.4210   61.1350   87.2580 C.2   253  TYR253      0.2264
    237  O          9.2760   60.2970   87.5720 O.2   253  TYR253     -0.2867
    238  CB         8.5400   61.7500   84.8450 C.3   253  TYR253      0.0534
    239  CG         8.0570   61.5870   83.4190 C.ar  253  TYR253     -0.0201
    240  CD1        8.0170   60.3340   82.8100 C.ar  253  TYR253     -0.0009
    241  CD2        7.6720   62.6930   82.6690 C.ar  253  TYR253     -0.0009
    242  CE1        7.5910   60.1860   81.4960 C.ar  253  TYR253      0.0417
    243  CE2        7.2350   62.5590   81.3580 C.ar  253  TYR253      0.0417
    244  CZ         7.1990   61.3030   80.7750 C.ar  253  TYR253      0.1957
    245  OH         6.7740   61.1660   79.4730 O.3   253  TYR253     -0.2866
@<TRIPOS>BOND
     1   156   154    1
     2   180   181    1
     3   182   181    1
     4   182   183    2
     5   181   184    1
     6   154   155    1
     7   154   153    1
     8   184   185    1
     9   185   186    1
    10   164   162    1
    11   162   161    1
    12   145   144    2
    13   187   186    1
    14   142   143    1
    15   160   159    2
    16   188   189    1
    17   170   169    1
    18   150   153    1
    19   150   149    1
    20   150   151    1
    21   174   173    2
    22   168   167    2
    23   144   149   am
    24   144   143    1
    25   169   166    1
    26   157   151   am
    27   157   158    1
    28   143   146    1
    29   173   172    1
    30   159   158    1
    31   159   165   am
    32   151   152    2
    33   161   158    1
    34   161   163    1
    35   167   166    1
    36   167   171   am
    37   137   136    2
    38   189   190    1
    39   189   192    1
    40   166   165    1
    41    27    25    1
    42    18    17    1
    43   190   191    2
    44   172   171    1
    45   172   175    1
    46   193   192    1
    47   193   194    1
    48   193   195    1
    49   136   135    1
    50   146   147    1
    51   146   148    1
    52   175   176    1
    53    25    24    1
    54    19    17    1
    55   135   138    1
    56   135   134    1
    57    17    16    1
    58   138   139    1
    59   176   177    1
    60   179   177   ar
    61    24    26    1
    62    24    21    1
    63   141   139    1
    64    16    13    1
    65   177   178   ar
    66   139   140    1
    67    13    14    1
    68    13    12    1
    69    21    20    1
    70    21    22    1
    71    14    15    2
    72   129   128    2
    73   211   212    1
    74   211   208    1
    75   214   213    1
    76   212   213    1
    77    22    23    2
    78   209   210    2
    79   209   208    1
    80   132   131    1
    81   128   127    1
    82   208   207    1
    83    37    36    1
    84    29    28    1
    85    29    30    1
    86   218   217    2
    87   217   216    1
    88   121   120    2
    89    54    55    1
    90    54    53    1
    91    55    56    1
    92   207   198   am
    93   131   133    1
    94   131   130    1
    95     4     3    2
    96   127   130    1
    97   127   126    1
    98    30    32   am
    99    30    31    2
   100    58    57    1
   101    32    33    1
   102    56    57    2
   103    57    59    1
   104     3     2    1
   105   120   126   am
   106   120   119    1
   107    47    45   ar
   108    47    48   ar
   109   216   219    1
   110   216   215    1
   111   196   197    1
   112   219   220    1
   113    36    33    1
   114    33    34    1
   115    53    50    1
   116    45    43   ar
   117   198   197    1
   118   198   199    2
   119   197   200    1
   120   200   201    1
   121    48    46   ar
   122   119   122    1
   123   119   118    1
   124     2     5    1
   125     2     1    1
   126     5     6    1
   127    50    49    1
   128    50    51    1
   129   220   221    1
   130    43    42    1
   131    43    44   ar
   132    34    35    2
   133    49    40   am
   134   109   108    2
   135   125   124    1
   136   221   222    1
   137    42    39    1
   138   203   201   ar
   139   203   205   ar
   140   122   123    1
   141    79    77   ar
   142   201   202   ar
   143    46    44   ar
   144    78    77   ar
   145   123   124    1
   146    40    39    1
   147    40    41    2
   148    77    76    1
   149    51    52    2
   150    51    60   am
   151   101   100    2
   152   108   107    1
   153     6     7   ar
   154     6     8   ar
   155    39    38    1
   156   205   206   ar
   157   222   223    1
   158   202   204   ar
   159    60    61    1
   160   107   110    1
   161   107   106    1
   162     7     9   ar
   163     8    10   ar
   164    76    75    1
   165   100   106   am
   166   100    99    1
   167   110   111    1
   168   104   102    1
   169   206   204   ar
   170    65    64    1
   171    70    67    1
   172   112   111   ar
   173   112   114   ar
   174    66    67    1
   175    61    64    1
   176    61    62    1
   177     9    11   ar
   178    10    11   ar
   179    67    68    1
   180    75    72    1
   181   111   113   ar
   182    99   102    1
   183    99    98    1
   184   114   116   ar
   185   102   103    1
   186   231   233   ar
   187   231   229   ar
   188   233   232   ar
   189    62    63    2
   190   103   105    1
   191   113   115   ar
   192    68    69    2
   193    72    71    1
   194    72    73    1
   195   116   115   ar
   196   116   117    1
   197   229   228    1
   198   229   230   ar
   199   232   230   ar
   200    87    85    1
   201   228   225    1
   202    73    74    2
   203    73    80   am
   204    91    90    2
   205   225   224    1
   206   225   226    1
   207    85    84    1
   208    80    81    1
   209   227   226    2
   210    95    97   ar
   211    95    93   ar
   212    90    89    1
   213    81    84    1
   214    81    82    1
   215   245   244    1
   216    84    86    1
   217    97    96   ar
   218    89    92    1
   219    89    88    1
   220    93    92    1
   221    93    94   ar
   222    82    83    2
   223   244   243   ar
   224   244   242   ar
   225    96    94   ar
   226   243   241   ar
   227   242   240   ar
   228   241   239   ar
   229   240   239   ar
   230   239   238    1
   231   238   235    1
   232   235   234    1
   233   235   236    1
   234   236   237    2
