@<TRIPOS>MOLECULE
tmp/2q5qB02.pdb
 86 81 0 0 0
SMALL
GASTEIGER

@<TRIPOS>ATOM
      1  N          7.0110   94.9040   16.8900 N.3   283  ASP283     -0.1225
      2  CA         5.7120   95.2660   17.4210 C.3   283  ASP283      0.1805
      3  C          5.9470   95.9310   18.7860 C.2   283  ASP283      0.2598
      4  O          5.2580   96.8820   19.1410 O.2   283  ASP283     -0.2718
      5  CB         4.7960   94.0240   17.5430 C.3   283  ASP283      0.1424
      6  CG         5.4890   92.8280   18.2020 C.2   283  ASP283      0.3668
      7  OD1        6.6790   92.9260   18.5570 O.co2 283  ASP283     -0.2456
      8  OD2        4.8350   91.7790   18.3660 O.co2 283  ASP283     -0.2456
      9  N          6.9420   95.4710   19.5350 N.am  284  THR284     -0.1953
     10  CA         7.1970   96.0630   20.8470 C.3   284  THR284      0.1897
     11  C          7.6620   97.5200   20.7730 C.2   284  THR284      0.2313
     12  O          7.2800   98.3380   21.6150 O.2   284  THR284     -0.2863
     13  CB         8.2490   95.2760   21.6510 C.3   284  THR284      0.1794
     14  OG1        7.8820   93.8940   21.7040 O.3   284  THR284     -0.2208
     15  CG2        8.3120   95.8110   23.0620 C.3   284  THR284      0.0378
     16  N         12.3770   89.7140   31.0930 N.3   374  MET374     -0.1245
     17  CA        11.1210   90.1460   30.5020 C.3   374  MET374      0.1570
     18  C         10.0780   89.9130   31.5920 C.2   374  MET374      0.2261
     19  O         10.0930   88.8710   32.2440 O.2   374  MET374     -0.2867
     20  CB        10.7720   89.3080   29.2600 C.3   374  MET374      0.0387
     21  CG         9.3610   89.5860   28.7080 C.3   374  MET374      0.0595
     22  SD         8.9390   91.3460   28.5110 S.3   374  MET374     -0.1393
     23  CE        10.0580   91.8140   27.1920 C.3   374  MET374      0.0692
     24  N          9.3410   96.6970   32.3360 N.3   379  PHE379     -0.1241
     25  CA         8.5500   97.9090   32.2030 C.3   379  PHE379      0.1605
     26  C          8.7980   98.8720   33.3620 C.2   379  PHE379      0.2264
     27  O          8.6770  100.0840   33.2070 O.2   379  PHE379     -0.2867
     28  CB         7.0710   97.5520   32.0810 C.3   379  PHE379      0.0534
     29  CG         6.7420   96.8600   30.7950 C.ar  379  PHE379     -0.0203
     30  CD1        6.2690   97.5800   29.6950 C.ar  379  PHE379     -0.0042
     31  CD2        6.9800   95.4910   30.6510 C.ar  379  PHE379     -0.0042
     32  CE1        6.0370   96.9400   28.4630 C.ar  379  PHE379     -0.0003
     33  CE2        6.7530   94.8440   29.4250 C.ar  379  PHE379     -0.0003
     34  CZ         6.2810   95.5730   28.3340 C.ar  379  PHE379     -0.0000
     35  N         12.0280   89.0930   23.7030 N.3   396  ALA396     -0.1245
     36  CA        11.1630   88.9250   24.8690 C.3   396  ALA396      0.1562
     37  C         11.2020   87.5570   25.5410 C.2   396  ALA396      0.2260
     38  O         10.2170   87.1450   26.1620 O.2   396  ALA396     -0.2867
     39  CB         9.7090   89.2680   24.4830 C.3   396  ALA396      0.0290
     40  N          2.2230   89.4310   33.7890 N.3   455  MET455     -0.1230
     41  CA         1.9980   90.0150   32.4780 C.3   455  MET455      0.1702
     42  C          0.9180   89.2180   31.7570 C.2   455  MET455      0.2592
     43  O          0.0560   89.7920   31.0980 O.2   455  MET455     -0.2718
     44  CB         3.2720   90.0160   31.6380 C.3   455  MET455      0.0401
     45  CG         3.1220   90.8680   30.3730 C.3   455  MET455      0.0596
     46  SD         4.5980   90.8690   29.3470 S.3   455  MET455     -0.1393
     47  CE         5.8000   91.2090   30.5340 C.3   455  MET455      0.0692
     48  N          0.9500   87.8940   31.9010 N.am  456  LEU456     -0.1980
     49  CA        -0.0470   87.0530   31.2420 C.3   456  LEU456      0.1596
     50  C         -1.4110   87.1880   31.8960 C.2   456  LEU456      0.2287
     51  O         -2.4310   87.0470   31.2270 O.2   456  LEU456     -0.2864
     52  CB         0.3900   85.5750   31.2400 C.3   456  LEU456      0.0297
     53  CG         1.7350   85.3130   30.5480 C.3   456  LEU456      0.0022
     54  CD1        1.9390   83.8060   30.3970 C.3   456  LEU456      0.0001
     55  CD2        1.7630   86.0070   29.1980 C.3   456  LEU456      0.0001
     56  N         -3.1040   90.1150   30.3610 N.3   459  PHE459     -0.1241
     57  CA        -3.6370   89.8070   29.0490 C.3   459  PHE459      0.1605
     58  C         -4.9140   88.9650   29.1300 C.2   459  PHE459      0.2264
     59  O         -5.8470   89.1870   28.3670 O.2   459  PHE459     -0.2867
     60  CB        -2.5990   89.0360   28.2200 C.3   459  PHE459      0.0534
     61  CG        -1.6230   89.9130   27.4970 C.ar  459  PHE459     -0.0203
     62  CD1       -2.0230   90.6420   26.3780 C.ar  459  PHE459     -0.0042
     63  CD2       -0.3030   90.0100   27.9300 C.ar  459  PHE459     -0.0042
     64  CE1       -1.1190   91.4580   25.6970 C.ar  459  PHE459     -0.0003
     65  CE2        0.6060   90.8230   27.2550 C.ar  459  PHE459     -0.0003
     66  CZ         0.1960   91.5480   26.1360 C.ar  459  PHE459     -0.0000
     67  N          0.5100   99.3540   28.3430 N.3   526  PHE526     -0.1241
     68  CA         1.0760   98.6240   27.2170 C.3   526  PHE526      0.1605
     69  C          0.1040   97.5210   26.8350 C.2   526  PHE526      0.2264
     70  O         -0.3110   97.4150   25.6900 O.2   526  PHE526     -0.2867
     71  CB         2.4150   97.9990   27.5860 C.3   526  PHE526      0.0534
     72  CG         3.0510   97.2200   26.4540 C.ar  526  PHE526     -0.0203
     73  CD1        3.7690   97.8740   25.4550 C.ar  526  PHE526     -0.0042
     74  CD2        2.9160   95.8380   26.3830 C.ar  526  PHE526     -0.0042
     75  CE1        4.3450   97.1640   24.4040 C.ar  526  PHE526     -0.0003
     76  CE2        3.4900   95.1190   25.3330 C.ar  526  PHE526     -0.0003
     77  CZ         4.2060   95.7830   24.3440 C.ar  526  PHE526     -0.0000
     78  N         -2.3720   96.8440   23.4730 N.3   530  GLN530     -0.1245
     79  CA        -2.3110   95.6250   22.6850 C.3   530  GLN530      0.1566
     80  C         -3.6890   95.0120   22.5180 C.2   530  GLN530      0.2260
     81  O         -4.0460   94.5550   21.4310 O.2   530  GLN530     -0.2867
     82  CB        -1.3760   94.6050   23.3450 C.3   530  GLN530      0.0367
     83  CG         0.0870   94.9950   23.2840 C.3   530  GLN530      0.0905
     84  CD         0.5300   95.3390   21.8720 C.2   530  GLN530      0.2608
     85  OE1        0.3070   94.5740   20.9380 O.2   530  GLN530     -0.2717
     86  NE2        1.1640   96.4970   21.7130 N.am  530  GLN530     -0.0878
@<TRIPOS>BOND
     1     1     2    1
     2     2     5    1
     3     2     3    1
     4     5     6    1
     5     6     8   ar
     6     6     7   ar
     7     3     4    2
     8     3     9   am
     9     9    10    1
    10    11    10    1
    11    11    12    2
    12    10    13    1
    13    85    84    2
    14    81    80    2
    15    13    14    1
    16    13    15    1
    17    86    84   am
    18    84    83    1
    19    80    79    1
    20    79    82    1
    21    79    78    1
    22    83    82    1
    23    35    36    1
    24    77    75   ar
    25    77    76   ar
    26    75    73   ar
    27    39    36    1
    28    36    37    1
    29    76    74   ar
    30    73    72   ar
    31    37    38    2
    32    70    69    2
    33    64    66   ar
    34    64    62   ar
    35    66    65   ar
    36    62    61   ar
    37    74    72   ar
    38    72    71    1
    39    69    68    1
    40    23    22    1
    41    68    71    1
    42    68    67    1
    43    65    63   ar
    44    61    63   ar
    45    61    60    1
    46    60    57    1
    47    34    32   ar
    48    34    33   ar
    49    59    58    2
    50    32    30   ar
    51    22    21    1
    52    21    20    1
    53    57    58    1
    54    57    56    1
    55    55    53    1
    56    20    17    1
    57    46    45    1
    58    46    47    1
    59    33    31   ar
    60    30    29   ar
    61    45    44    1
    62    54    53    1
    63    17    16    1
    64    17    18    1
    65    53    52    1
    66    31    29   ar
    67    29    28    1
    68    43    42    2
    69    51    50    2
    70    52    49    1
    71    49    50    1
    72    49    48    1
    73    18    19    2
    74    44    41    1
    75    42    48   am
    76    42    41    1
    77    28    25    1
    78    25    24    1
    79    25    26    1
    80    41    40    1
    81    27    26    2
