@<TRIPOS>MOLECULE
tmp/2q5qB04.pdb
 139 132 0 0 0
SMALL
GASTEIGER

@<TRIPOS>ATOM
      1  N         27.1730   92.5920   24.6040 N.3    61  ARG61      -0.1231
      2  CA        26.4670   93.8650   24.6400 C.3    61  ARG61       0.1694
      3  C         27.2020   94.8700   25.5010 C.2    61  ARG61       0.2592
      4  O         27.2220   96.0550   25.1940 O.2    61  ARG61      -0.2718
      5  CB        25.0510   93.6950   25.1880 C.3    61  ARG61       0.0321
      6  CG        24.1710   92.7730   24.3660 C.3    61  ARG61       0.0489
      7  CD        22.7330   92.7910   24.8930 C.3    61  ARG61       0.2205
      8  NE        21.9670   91.6890   24.3230 N.pl3  61  ARG61      -0.0865
      9  CZ        20.6390   91.6410   24.2450 C.cat  61  ARG61       0.5346
     10  NH1       19.8990   92.6450   24.7010 N.pl3  61  ARG61       0.1354
     11  NH2       20.0500   90.5690   23.7170 N.pl3  61  ARG61       0.1354
     12  N         27.7890   94.3800   26.5830 N.am   62  TYR62      -0.1976
     13  CA        28.5090   95.2220   27.5250 C.3    62  TYR62       0.1639
     14  C         29.7470   95.8900   26.9100 C.2    62  TYR62       0.2290
     15  O         30.0170   97.0680   27.1630 O.2    62  TYR62      -0.2864
     16  CB        28.9190   94.3930   28.7420 C.3    62  TYR62       0.0560
     17  CG        29.4050   95.2240   29.9050 C.ar   62  TYR62      -0.0198
     18  CD1       28.5160   95.6820   30.8720 C.ar   62  TYR62      -0.0009
     19  CD2       30.7490   95.5730   30.0270 C.ar   62  TYR62      -0.0009
     20  CE1       28.9460   96.4590   31.9360 C.ar   62  TYR62       0.0417
     21  CE2       31.1970   96.3620   31.0930 C.ar   62  TYR62       0.0417
     22  CZ        30.2810   96.7950   32.0430 C.ar   62  TYR62       0.1957
     23  OH        30.6930   97.5540   33.1070 O.3    62  TYR62      -0.2866
     24  N         19.3310   99.4870   19.2010 N.3   212  VAL212     -0.1245
     25  CA        20.4930   98.6070   19.3470 C.3   212  VAL212      0.1561
     26  C         21.7580   98.7690   18.5150 C.2   212  VAL212      0.2260
     27  O         22.8540   98.7350   19.0690 O.2   212  VAL212     -0.2867
     28  CB        20.0850   97.1040   19.2660 C.3   212  VAL212      0.0252
     29  CG1       19.1320   96.7870   20.3780 C.3   212  VAL212      0.0019
     30  CG2       19.4830   96.7810   17.9120 C.3   212  VAL212      0.0019
     31  N         24.6730  100.9240   19.7820 N.3   215  ARG215     -0.1231
     32  CA        25.6570  100.3880   20.7220 C.3   215  ARG215      0.1694
     33  C         26.4550   99.2570   20.0810 C.2   215  ARG215      0.2591
     34  O         27.6700   99.1770   20.2340 O.2   215  ARG215     -0.2718
     35  CB        24.9980   99.8530   21.9850 C.3   215  ARG215      0.0321
     36  CG        25.9930   99.1310   22.8830 C.3   215  ARG215      0.0489
     37  CD        26.0950   99.7840   24.2280 C.3   215  ARG215      0.2205
     38  NE        27.1340   99.1720   25.0520 N.pl3 215  ARG215     -0.0865
     39  CZ        27.8860   99.8600   25.9030 C.cat 215  ARG215      0.5346
     40  NH1       27.7000  101.1700   26.0310 N.pl3 215  ARG215      0.1354
     41  NH2       28.8160   99.2470   26.6200 N.pl3 215  ARG215      0.1354
     42  N         25.7780   98.3820   19.3490 N.am  216  ARG216     -0.1980
     43  CA        26.4800   97.2670   18.7260 C.3   216  ARG216      0.1597
     44  C         27.7350   97.6870   17.9700 C.2   216  ARG216      0.2287
     45  O         28.7630   97.0180   18.0440 O.2   216  ARG216     -0.2864
     46  CB        25.5500   96.5090   17.7780 C.3   216  ARG216      0.0334
     47  CG        24.2800   95.9680   18.4480 C.3   216  ARG216      0.0492
     48  CD        24.5780   95.1330   19.7050 C.3   216  ARG216      0.2205
     49  NE        23.3370   94.5540   20.2170 N.pl3 216  ARG216     -0.0865
     50  CZ        22.7310   94.9080   21.3490 C.cat 216  ARG216      0.5346
     51  NH1       23.2520   95.8440   22.1330 N.pl3 216  ARG216      0.1354
     52  NH2       21.5630   94.3550   21.6650 N.pl3 216  ARG216      0.1354
     53  N         27.6180  105.2290   20.1620 N.3   220  GLU220     -0.1245
     54  CA        26.9390  106.1270   21.0920 C.3   220  GLU220      0.1567
     55  C         27.5250  107.5280   21.2420 C.2   220  GLU220      0.2260
     56  O         26.7790  108.5080   21.2440 O.2   220  GLU220     -0.2867
     57  CB        26.8350  105.4750   22.4560 C.3   220  GLU220      0.0388
     58  CG        25.9280  104.2600   22.4580 C.3   220  GLU220      0.1160
     59  CD        25.9210  103.5790   23.7990 C.2   220  GLU220      0.3649
     60  OE1       24.9570  103.7760   24.5670 O.co2 220  GLU220     -0.2457
     61  OE2       26.8980  102.8590   24.0830 O.co2 220  GLU220     -0.2457
     62  N         13.3610   98.8850   22.9820 N.3   239  MET239     -0.1230
     63  CA        14.5220   98.0050   22.9860 C.3   239  MET239      0.1702
     64  C         15.7940   98.7990   23.2930 C.2   239  MET239      0.2593
     65  O         16.6830   98.3090   24.0000 O.2   239  MET239     -0.2718
     66  CB        14.6660   97.3220   21.6180 C.3   239  MET239      0.0401
     67  CG        15.9050   96.4470   21.4730 C.3   239  MET239      0.0596
     68  SD        15.7960   94.9410   22.4690 S.3   239  MET239     -0.1393
     69  CE        17.5630   94.4810   22.5780 C.3   239  MET239      0.0692
     70  N         15.8640  100.0220   22.7660 N.am  240  GLY240     -0.1942
     71  CA        17.0290  100.8770   22.9430 C.3   240  GLY240      0.2014
     72  C         17.2150  101.5200   24.3160 C.2   240  GLY240      0.2639
     73  O         18.1420  102.3110   24.5090 O.2   240  GLY240     -0.2714
     74  N         16.3580  101.1840   25.2740 N.am  241  ARG241     -0.1963
     75  CA        16.4760  101.7480   26.6280 C.3   241  ARG241      0.1729
     76  C         17.8940  101.4470   27.1180 C.2   241  ARG241      0.2617
     77  O         18.3830  100.3370   26.9510 O.2   241  ARG241     -0.2715
     78  CB        15.4420  101.0840   27.5540 C.3   241  ARG241      0.0348
     79  CG        15.4650  101.5530   29.0010 C.3   241  ARG241      0.0492
     80  CD        15.0320  103.0110   29.1360 C.3   241  ARG241      0.2205
     81  NE        15.2100  103.5160   30.4960 N.pl3 241  ARG241     -0.0865
     82  CZ        14.9810  104.7790   30.8490 C.cat 241  ARG241      0.5346
     83  NH1       14.5620  105.6610   29.9400 N.pl3 241  ARG241      0.1354
     84  NH2       15.1740  105.1660   32.1050 N.pl3 241  ARG241      0.1354
     85  N         18.5650  102.4370   27.7010 N.am  242  GLY242     -0.1940
     86  CA        19.9160  102.2160   28.1900 C.3   242  GLY242      0.2014
     87  C         20.9850  102.8350   27.3080 C.2   242  GLY242      0.2638
     88  O         22.1480  102.9490   27.7150 O.2   242  GLY242     -0.2714
     89  N         20.5990  103.2350   26.0990 N.am  243  LEU243     -0.1977
     90  CA        21.5380  103.8480   25.1580 C.3   243  LEU243      0.1596
     91  C         21.8790  105.3010   25.5370 C.2   243  LEU243      0.2287
     92  O         21.0610  106.0160   26.1180 O.2   243  LEU243     -0.2864
     93  CB        20.9680  103.8140   23.7270 C.3   243  LEU243      0.0297
     94  CG        20.8960  102.4430   23.0320 C.3   243  LEU243      0.0022
     95  CD1       20.0650  102.5430   21.7440 C.3   243  LEU243      0.0001
     96  CD2       22.3160  101.9630   22.7290 C.3   243  LEU243      0.0001
     97  N         23.6500  106.4630   27.8450 N.3   245  ALA245     -0.1245
     98  CA        23.5840  106.6650   29.2910 C.3   245  ALA245      0.1562
     99  C         24.5950  107.6880   29.8200 C.2   245  ALA245      0.2260
    100  O         24.3060  108.4070   30.7750 O.2   245  ALA245     -0.2867
    101  CB        23.7670  105.3330   30.0080 C.3   245  ALA245      0.0290
    102  N         24.7290   99.5310   35.9370 N.3   369  LEU369     -0.1245
    103  CA        24.1560   99.0520   34.7000 C.3   369  LEU369      0.1561
    104  C         23.0470   98.1210   35.1600 C.2   369  LEU369      0.2260
    105  O         23.2030   97.4300   36.1590 O.2   369  LEU369     -0.2867
    106  CB        25.1870   98.2650   33.9060 C.3   369  LEU369      0.0270
    107  CG        24.5740   97.5120   32.7270 C.3   369  LEU369      0.0019
    108  CD1       25.3330   97.8700   31.4790 C.3   369  LEU369      0.0001
    109  CD2       24.6160   96.0220   32.9910 C.3   369  LEU369      0.0001
    110  N         23.1790  103.0810   34.1920 N.3   387  ALA387     -0.1231
    111  CA        24.4770  103.3480   33.5720 C.3   387  ALA387      0.1694
    112  C         24.4780  102.3300   32.4300 C.2   387  ALA387      0.2593
    113  O         25.4310  101.5840   32.2130 O.2   387  ALA387     -0.2718
    114  CB        25.6230  103.0710   34.5590 C.3   387  ALA387      0.0304
    115  N         23.3660  102.3100   31.7040 N.am  388  GLY388     -0.1942
    116  CA        23.2130  101.3690   30.6180 C.3   388  GLY388      0.2014
    117  C         22.2210  100.3290   31.0850 C.2   388  GLY388      0.2639
    118  O         22.0230  100.1460   32.2900 O.2   388  GLY388     -0.2714
    119  N         21.5850   99.6510   30.1370 N.am  389  LEU389     -0.1963
    120  CA        20.6110   98.6210   30.4660 C.3   389  LEU389      0.1728
    121  C         20.5650   97.5830   29.3490 C.2   389  LEU389      0.2616
    122  O         20.6310   97.9280   28.1650 O.2   389  LEU389     -0.2715
    123  CB        19.2190   99.2400   30.6490 C.3   389  LEU389      0.0311
    124  CG        18.0600   98.2460   30.8300 C.3   389  LEU389      0.0022
    125  CD1       17.0230   98.8270   31.7960 C.3   389  LEU389      0.0001
    126  CD2       17.4240   97.9310   29.4800 C.3   389  LEU389      0.0001
    127  N         20.4970   96.3120   29.7280 N.am  390  MET390     -0.1963
    128  CA        20.3880   95.2470   28.7300 C.3   390  MET390      0.1736
    129  C         19.1610   94.4270   29.0940 C.2   390  MET390      0.2616
    130  O         18.9510   94.0680   30.2590 O.2   390  MET390     -0.2715
    131  CB        21.6500   94.3740   28.6720 C.3   390  MET390      0.0427
    132  CG        22.2050   93.9250   29.9910 C.3   390  MET390      0.0599
    133  SD        23.7630   92.9960   29.7620 S.3   390  MET390     -0.1393
    134  CE        24.8430   94.2310   29.2870 C.3   390  MET390      0.0692
    135  N         18.3260   94.1680   28.0980 N.am  391  ALA391     -0.1977
    136  CA        17.0990   93.4190   28.3220 C.3   391  ALA391      0.1597
    137  C         16.6420   92.8520   26.9920 C.2   391  ALA391      0.2287
    138  O         17.0300   93.3470   25.9320 O.2   391  ALA391     -0.2864
    139  CB        16.0100   94.3450   28.8910 C.3   391  ALA391      0.0319
@<TRIPOS>BOND
     1    46    47    1
     2    46    43    1
     3    30    28    1
     4    44    45    2
     5    44    43    1
     6    47    48    1
     7    26    27    2
     8    26    25    1
     9    43    42    1
    10    24    25    1
    11    28    25    1
    12    28    29    1
    13    42    33   am
    14    48    49    1
    15    31    32    1
    16    33    34    2
    17    33    32    1
    18    53    54    1
    19    49    50    2
    20    32    35    1
    21    54    55    1
    22    54    57    1
    23    55    56    2
    24    50    52    1
    25    50    51    1
    26    67    66    1
    27    67    68    1
    28    66    63    1
    29    95    94    1
    30    35    36    1
    31    57    58    1
    32    58    59    1
    33    68    69    1
    34    96    94    1
    35    70    71    1
    36    70    64   am
    37    36    37    1
    38    71    72    1
    39    62    63    1
    40    63    64    1
    41    94    93    1
    42    64    65    2
    43    11     9    1
    44    93    90    1
    45    59    61   ar
    46    59    60   ar
    47    37    38    1
    48     9     8    2
    49     9    10    1
    50    72    73    2
    51    72    74   am
    52     8     7    1
    53     6     7    1
    54     6     5    1
    55     1     2    1
    56     2     5    1
    57     2     3    1
    58    38    39    2
    59    90    91    1
    60    90    89    1
    61     4     3    2
    62    74    75    1
    63     3    12   am
    64    91    92    2
    65    39    40    1
    66    39    41    1
    67   138   137    2
    68    89    87   am
    69    12    13    1
    70    75    76    1
    71    75    78    1
    72    14    15    2
    73    14    13    1
    74    77    76    2
    75   137   136    1
    76    76    85   am
    77    87    88    2
    78    87    86    1
    79    13    16    1
    80    78    79    1
    81    85    86    1
    82    97    98    1
    83   135   136    1
    84   135   129   am
    85   122   121    2
    86   136   139    1
    87   131   128    1
    88   131   132    1
    89   128   129    1
    90   128   127    1
    91    16    17    1
    92    79    80    1
    93   129   130    2
    94    80    81    1
    95   134   133    1
    96    98    99    1
    97    98   101    1
    98   121   127   am
    99   121   120    1
   100   126   124    1
   101   133   132    1
   102    99   100    2
   103    17    19   ar
   104    17    18   ar
   105    83    82    1
   106    19    21   ar
   107   119   120    1
   108   119   117   am
   109   120   123    1
   110    81    82    2
   111   116   117    1
   112   116   115    1
   113   123   124    1
   114   124   125    1
   115    82    84    1
   116    18    20   ar
   117   117   118    2
   118    21    22   ar
   119   108   107    1
   120   115   112   am
   121    20    22   ar
   122    22    23    1
   123   113   112    2
   124   112   111    1
   125   107   109    1
   126   107   106    1
   127   111   110    1
   128   111   114    1
   129   106   103    1
   130   103   104    1
   131   103   102    1
   132   104   105    2
