@<TRIPOS>MOLECULE
tmp/2q5yA00.pdb
 140 135 0 0 0
SMALL
GASTEIGER

@<TRIPOS>ATOM
      1  N         75.7870  101.8370   65.9450 N.3    69  LYS69      -0.1231
      2  CA        74.4660  102.2290   65.4810 C.3    69  LYS69       0.1693
      3  C         73.3470  101.6410   66.3340 C.2    69  LYS69       0.2592
      4  O         72.2420  101.3880   65.8490 O.2    69  LYS69      -0.2718
      5  CB        74.2830  101.8060   64.0280 C.3    69  LYS69       0.0285
      6  CG        73.1680  102.5250   63.3060 C.3    69  LYS69       0.0035
      7  CD        73.0100  101.9840   61.9030 C.3    69  LYS69       0.0206
      8  CE        71.8680  102.6680   61.1800 C.3    69  LYS69       0.1093
      9  NZ        71.6710  102.0750   59.8180 N.3    69  LYS69      -0.1314
     10  N         73.6260  101.4200   67.6120 N.am   70  GLU70      -0.1966
     11  CA        72.6060  100.8730   68.4810 C.3    70  GLU70       0.1733
     12  C         72.9120  101.0190   69.9550 C.2    70  GLU70       0.2616
     13  O         74.0090  100.7030   70.4180 O.2    70  GLU70      -0.2715
     14  CB        72.3620   99.3930   68.1910 C.3    70  GLU70       0.0429
     15  CG        71.2680   98.8340   69.0710 C.3    70  GLU70       0.1163
     16  CD        71.1560   97.3380   69.0120 C.2    70  GLU70       0.3649
     17  OE1       72.1730   96.6560   69.2510 O.co2  70  GLU70      -0.2457
     18  OE2       70.0410   96.8450   68.7400 O.co2  70  GLU70      -0.2457
     19  N         71.9090  101.4970   70.6790 N.am   71  VAL71      -0.1977
     20  CA        71.9880  101.6780   72.1160 C.3    71  VAL71       0.1596
     21  C         70.8020  100.9400   72.7250 C.2    71  VAL71       0.2287
     22  O         69.6910  100.9720   72.1930 O.2    71  VAL71      -0.2864
     23  CB        71.9250  103.1820   72.5110 C.3    71  VAL71       0.0276
     24  CG1       71.4860  103.3270   73.9380 C.3    71  VAL71       0.0022
     25  CG2       73.2950  103.8250   72.3510 C.3    71  VAL71       0.0022
     26  N         70.8510  110.6830   72.9140 N.3    93  VAL93      -0.1245
     27  CA        71.7490  109.6400   72.4670 C.3    93  VAL93       0.1561
     28  C         72.5860  110.0320   71.2540 C.2    93  VAL93       0.2260
     29  O         72.0740  110.5760   70.2840 O.2    93  VAL93      -0.2867
     30  CB        70.9580  108.3690   72.1170 C.3    93  VAL93       0.0252
     31  CG1       71.8870  107.3000   71.5510 C.3    93  VAL93       0.0019
     32  CG2       70.2500  107.8650   73.3640 C.3    93  VAL93       0.0019
     33  N         75.2150  108.2920   68.5830 N.3    95  LEU95      -0.1245
     34  CA        75.7260  107.0340   68.0470 C.3    95  LEU95       0.1561
     35  C         76.8130  107.4280   67.0420 C.2    95  LEU95       0.2260
     36  O         76.5250  108.0600   66.0270 O.2    95  LEU95      -0.2867
     37  CB        74.6030  106.2590   67.3430 C.3    95  LEU95       0.0270
     38  CG        73.4500  105.6570   68.1630 C.3    95  LEU95       0.0019
     39  CD1       72.4740  104.9790   67.2260 C.3    95  LEU95       0.0001
     40  CD2       73.9740  104.6520   69.1640 C.3    95  LEU95       0.0001
     41  N         71.6900  111.1330   53.3800 N.3   120  TYR120     -0.1241
     42  CA        71.8300  110.1260   54.4190 C.3   120  TYR120      0.1605
     43  C         71.2670  110.6140   55.7580 C.2   120  TYR120      0.2264
     44  O         70.5660  109.8690   56.4460 O.2   120  TYR120     -0.2867
     45  CB        73.3020  109.7310   54.5810 C.3   120  TYR120      0.0534
     46  CG        73.5050  108.5960   55.5500 C.ar  120  TYR120     -0.0201
     47  CD1       72.9950  107.3250   55.2810 C.ar  120  TYR120     -0.0009
     48  CD2       74.1790  108.7920   56.7440 C.ar  120  TYR120     -0.0009
     49  CE1       73.1500  106.2820   56.1810 C.ar  120  TYR120      0.0417
     50  CE2       74.3390  107.7610   57.6480 C.ar  120  TYR120      0.0417
     51  CZ        73.8200  106.5050   57.3620 C.ar  120  TYR120      0.1957
     52  OH        73.9650  105.4730   58.2750 O.3   120  TYR120     -0.2866
     53  N         67.7070  110.3510   56.0150 N.3   123  ARG123     -0.1231
     54  CA        67.3700  108.9390   56.1670 C.3   123  ARG123      0.1694
     55  C         67.4200  108.5980   57.6570 C.2   123  ARG123      0.2591
     56  O         66.5560  107.8850   58.1810 O.2   123  ARG123     -0.2718
     57  CB        68.3840  108.1010   55.3880 C.3   123  ARG123      0.0321
     58  CG        68.0930  106.6240   55.3030 C.3   123  ARG123      0.0489
     59  CD        69.2280  105.9120   54.5560 C.3   123  ARG123      0.2205
     60  NE        69.3820  106.3850   53.1800 N.pl3 123  ARG123     -0.0865
     61  CZ        70.3380  105.9750   52.3460 C.cat 123  ARG123      0.5346
     62  NH1       71.2400  105.0820   52.7420 N.pl3 123  ARG123      0.1354
     63  NH2       70.3890  106.4480   51.1060 N.pl3 123  ARG123      0.1354
     64  N         68.4330  109.1170   58.3460 N.am  124  LEU124     -0.1980
     65  CA        68.5550  108.8770   59.7790 C.3   124  LEU124      0.1596
     66  C         67.4730  109.6450   60.5320 C.2   124  LEU124      0.2287
     67  O         66.9700  109.1720   61.5510 O.2   124  LEU124     -0.2864
     68  CB        69.9350  109.3100   60.2940 C.3   124  LEU124      0.0297
     69  CG        71.1320  108.5320   59.7410 C.3   124  LEU124      0.0022
     70  CD1       72.4000  109.0180   60.4080 C.3   124  LEU124      0.0001
     71  CD2       70.9420  107.0400   59.9770 C.3   124  LEU124      0.0001
     72  N         64.3160  107.6290   60.3840 N.3   127  VAL127     -0.1245
     73  CA        64.3720  106.4670   61.2670 C.3   127  VAL127      0.1561
     74  C         64.1340  106.8860   62.7120 C.2   127  VAL127      0.2260
     75  O         63.4540  106.1800   63.4490 O.2   127  VAL127     -0.2867
     76  CB        65.7230  105.7240   61.1680 C.3   127  VAL127      0.0252
     77  CG1       65.8360  104.7010   62.2900 C.3   127  VAL127      0.0019
     78  CG2       65.8300  105.0180   59.8240 C.3   127  VAL127      0.0019
     79  N         60.7480  105.7650   65.1780 N.3   131  GLN131     -0.1245
     80  CA        60.9160  105.1440   66.4940 C.3   131  GLN131      0.1566
     81  C         60.4270  106.0280   67.6370 C.2   131  GLN131      0.2260
     82  O         60.4940  105.6280   68.7980 O.2   131  GLN131     -0.2867
     83  CB        62.3830  104.8080   66.7520 C.3   131  GLN131      0.0367
     84  CG        63.0720  104.0820   65.6270 C.3   131  GLN131      0.0905
     85  CD        64.4410  103.5800   66.0310 C.2   131  GLN131      0.2608
     86  OE1       65.1500  104.2230   66.8030 O.2   131  GLN131     -0.2717
     87  NE2       64.8250  102.4320   65.4980 N.am  131  GLN131     -0.0878
     88  N         75.3140  110.3230   64.8540 N.3   145  TRP145     -0.1241
     89  CA        73.8700  110.4470   64.7590 C.3   145  TRP145      0.1605
     90  C         73.3680  110.8040   66.1600 C.2   145  TRP145      0.2264
     91  O         73.5700  110.0410   67.1090 O.2   145  TRP145     -0.2867
     92  CB        73.3210  109.1020   64.2820 C.3   145  TRP145      0.0550
     93  CG        71.8430  108.9540   64.2210 C.ar  145  TRP145      0.0003
     94  CD1       70.9040  109.9440   64.2860 C.ar  145  TRP145      0.0946
     95  CD2       71.1260  107.7280   64.0560 C.ar  145  TRP145      0.0152
     96  NE1       69.6440  109.4080   64.1730 N.ar  145  TRP145     -0.2442
     97  CE2       69.7490  108.0490   64.0290 C.ar  145  TRP145      0.0810
     98  CE3       71.5140  106.3830   63.9260 C.ar  145  TRP145      0.0012
     99  CZ2       68.7510  107.0710   63.8730 C.ar  145  TRP145      0.0191
    100  CZ3       70.5230  105.4090   63.7710 C.ar  145  TRP145      0.0001
    101  CH2       69.1580  105.7610   63.7470 C.ar  145  TRP145      0.0015
    102  N         70.0900  112.1310   68.6830 N.3   147  PHE147     -0.1241
    103  CA        68.6480  112.2590   68.8310 C.3   147  PHE147      0.1605
    104  C         68.2200  112.0330   70.2670 C.2   147  PHE147      0.2264
    105  O         68.8970  111.3380   71.0280 O.2   147  PHE147     -0.2867
    106  CB        67.9350  111.2780   67.9020 C.3   147  PHE147      0.0534
    107  CG        68.3420  109.8530   68.1070 C.ar  147  PHE147     -0.0203
    108  CD1       67.7110  109.0740   69.0690 C.ar  147  PHE147     -0.0042
    109  CD2       69.3620  109.2930   67.3490 C.ar  147  PHE147     -0.0042
    110  CE1       68.0840  107.7570   69.2710 C.ar  147  PHE147     -0.0003
    111  CE2       69.7520  107.9760   67.5460 C.ar  147  PHE147     -0.0003
    112  CZ        69.1130  107.2010   68.5060 C.ar  147  PHE147     -0.0000
    113  N         65.2760  110.9670   73.2800 N.3   149  VAL149     -0.1245
    114  CA        64.2060  110.0150   73.5650 C.3   149  VAL149      0.1561
    115  C         63.5130  110.3920   74.8710 C.2   149  VAL149      0.2260
    116  O         64.1110  111.0210   75.7450 O.2   149  VAL149     -0.2867
    117  CB        64.7310  108.5770   73.7260 C.3   149  VAL149      0.0252
    118  CG1       65.1940  108.0320   72.3810 C.3   149  VAL149      0.0019
    119  CG2       65.8500  108.5580   74.7620 C.3   149  VAL149      0.0019
    120  N         62.2700  108.0770   76.8530 N.3   151  HIS151     -0.1226
    121  CA        62.7670  107.0480   77.7590 C.3   151  HIS151      0.1752
    122  C         63.2950  105.8780   76.9420 C.2   151  HIS151      0.2596
    123  O         63.4620  105.9950   75.7300 O.2   151  HIS151     -0.2718
    124  CB        61.6490  106.5590   78.6750 C.3   151  HIS151      0.0759
    125  CG        60.4400  106.0710   77.9410 C.ar  151  HIS151      0.0818
    126  ND1       59.3770  106.8920   77.6300 N.ar  151  HIS151     -0.2268
    127  CD2       60.1360  104.8520   77.4360 C.ar  151  HIS151      0.1154
    128  CE1       58.4690  106.2000   76.9640 C.ar  151  HIS151      0.1986
    129  NE2       58.9050  104.9590   76.8330 N.ar  151  HIS151     -0.2212
    130  N         63.5600  104.7510   77.5960 N.am  152  PHE152     -0.1976
    131  CA        64.0600  103.5790   76.8840 C.3   152  PHE152      0.1639
    132  C         63.1150  102.3920   77.0040 C.2   152  PHE152      0.2290
    133  O         61.9960  102.5850   77.5210 O.2   152  PHE152     -0.2864
    134  CB        65.4490  103.1910   77.3900 C.3   152  PHE152      0.0560
    135  CG        66.4900  104.2470   77.1610 C.ar  152  PHE152     -0.0200
    136  CD1       66.6330  105.3050   78.0510 C.ar  152  PHE152     -0.0042
    137  CD2       67.3140  104.1970   76.0330 C.ar  152  PHE152     -0.0042
    138  CE1       67.5820  106.3080   77.8270 C.ar  152  PHE152     -0.0003
    139  CE2       68.2740  105.1960   75.7930 C.ar  152  PHE152     -0.0003
    140  CZ        68.4060  106.2560   76.6950 C.ar  152  PHE152     -0.0000
@<TRIPOS>BOND
     1    63    61    1
     2    61    62    1
     3    61    60    2
     4    60    59    1
     5    41    42    1
     6    42    45    1
     7    42    43    1
     8    59    58    1
     9    45    46    1
    10    47    46   ar
    11    47    49   ar
    12    58    57    1
    13    57    54    1
    14    46    48   ar
    15    43    44    2
    16    53    54    1
    17    54    55    1
    18    49    51   ar
    19    48    50   ar
    20    51    50   ar
    21    51    52    1
    22    55    56    2
    23    55    64   am
    24    64    65    1
    25    69    71    1
    26    69    68    1
    27    69    70    1
    28    65    68    1
    29    65    66    1
    30     9     8    1
    31    78    76    1
    32    72    73    1
    33    66    67    2
    34    76    73    1
    35    76    77    1
    36     8     7    1
    37    73    74    1
    38     7     6    1
    39    74    75    2
    40     6     5    1
    41   101   100   ar
    42   101    99   ar
    43   100    98   ar
    44    99    97   ar
    45    98    95   ar
    46     5     2    1
    47    97    95   ar
    48    97    96   ar
    49    95    93   ar
    50    96    94   ar
    51    93    92    1
    52    93    94   ar
    53    92    89    1
    54    89    88    1
    55    89    90    1
    56    79    80    1
    57     2     1    1
    58     2     3    1
    59    87    85   am
    60    84    85    1
    61    84    83    1
    62     4     3    2
    63    36    35    2
    64    85    86    2
    65    90    91    2
    66     3    10   am
    67    80    83    1
    68    80    81    1
    69    35    34    1
    70    39    38    1
    71    37    34    1
    72    37    38    1
    73   109   111   ar
    74   109   107   ar
    75   111   112   ar
    76    10    11    1
    77    81    82    2
    78   106   107    1
    79   106   103    1
    80    34    33    1
    81   107   108   ar
    82    38    40    1
    83    14    11    1
    84    14    15    1
    85    11    12    1
    86   112   110   ar
    87   102   103    1
    88    18    16   ar
    89   103   104    1
    90    16    15    1
    91    16    17   ar
    92   108   110   ar
    93    12    13    2
    94    12    19   am
    95   104   105    2
    96    29    28    2
    97    19    20    1
    98    28    27    1
    99    31    30    1
   100    20    23    1
   101    20    21    1
   102    30    27    1
   103    30    32    1
   104    22    21    2
   105    25    23    1
   106   118   117    1
   107    27    26    1
   108    23    24    1
   109   113   114    1
   110   114   117    1
   111   114   115    1
   112   117   119    1
   113   115   116    2
   114   123   122    2
   115   139   137   ar
   116   139   140   ar
   117   137   135   ar
   118   140   138   ar
   119   129   128   ar
   120   129   127   ar
   121   120   121    1
   122   131   132    1
   123   131   134    1
   124   131   130    1
   125   122   130   am
   126   122   121    1
   127   128   126   ar
   128   132   133    2
   129   135   134    1
   130   135   136   ar
   131   127   125   ar
   132   126   125   ar
   133   121   124    1
   134   138   136   ar
   135   125   124    1
