@<TRIPOS>MOLECULE
tmp/2q61A00.pdb
 181 168 0 0 0
SMALL
GASTEIGER

@<TRIPOS>ATOM
      1  N         19.4700   19.0760   -1.9740 N.3    41  ILE41      -0.1245
      2  CA        20.7070   19.7670   -1.6170 C.3    41  ILE41       0.1561
      3  C         21.8090   18.7240   -1.5810 C.2    41  ILE41       0.2260
      4  O         21.7670   17.8160   -0.7630 O.2    41  ILE41      -0.2867
      5  CB        20.5620   20.4890   -0.2490 C.3    41  ILE41       0.0252
      6  CG1       19.5140   21.6110   -0.3580 C.3    41  ILE41       0.0019
      7  CG2       21.9290   21.0100    0.2600 C.3    41  ILE41       0.0019
      8  CD1       19.0510   22.1780    0.9880 C.3    41  ILE41       0.0001
      9  N         22.9310   23.9540   -1.9410 N.3    47  LEU47      -0.1245
     10  CA        22.5510   24.4240   -0.6030 C.3    47  LEU47       0.1561
     11  C         22.0680   25.8620   -0.6750 C.2    47  LEU47       0.2260
     12  O         20.9760   26.1670   -0.1820 O.2    47  LEU47      -0.2867
     13  CB        23.6800   24.3000    0.4270 C.3    47  LEU47       0.0270
     14  CG        23.3590   25.0780    1.7160 C.3    47  LEU47       0.0019
     15  CD1       22.5670   24.2610    2.7170 C.3    47  LEU47       0.0001
     16  CD2       24.5980   25.6290    2.3610 C.3    47  LEU47       0.0001
     17  N         18.3470   27.0570    0.3480 N.3    51  GLU51      -0.1245
     18  CA        18.0240   28.0410    1.4000 C.3    51  GLU51       0.1567
     19  C         17.0700   29.1570    0.9430 C.2    51  GLU51       0.2260
     20  O         16.3650   29.7420    1.7620 O.2    51  GLU51      -0.2867
     21  CB        19.3050   28.6210    2.0120 C.3    51  GLU51       0.0388
     22  CG        20.0070   27.6620    2.9820 C.3    51  GLU51       0.1160
     23  CD        21.3410   28.1920    3.4950 C.2    51  GLU51       0.3649
     24  OE1       22.2830   28.3310    2.6880 O.co2  51  GLU51      -0.2457
     25  OE2       21.4580   28.4520    4.7130 O.co2  51  GLU51      -0.2457
     26  N         26.0400   26.9550   10.0120 N.3    59  ARG59      -0.1231
     27  CA        24.6750   27.3610    9.6860 C.3    59  ARG59       0.1694
     28  C         23.7210   26.1670    9.5530 C.2    59  ARG59       0.2591
     29  O         22.5630   26.2470    9.9680 O.2    59  ARG59      -0.2718
     30  CB        24.6930   28.1850    8.4010 C.3    59  ARG59       0.0321
     31  CG        23.3460   28.7530    7.9670 C.3    59  ARG59       0.0489
     32  CD        23.5540   29.8480    6.9080 C.3    59  ARG59       0.2205
     33  NE        23.9480   29.2960    5.6130 N.pl3  59  ARG59      -0.0865
     34  CZ        24.7010   29.9300    4.7160 C.cat  59  ARG59       0.5346
     35  NH1       25.1650   31.1520    4.9600 N.pl3  59  ARG59       0.1354
     36  NH2       25.0030   29.3340    3.5720 N.pl3  59  ARG59       0.1354
     37  N         24.2110   25.0710    8.9760 N.am   60  ILE60      -0.1980
     38  CA        23.4430   23.8300    8.8750 C.3    60  ILE60       0.1595
     39  C         23.2340   23.2300   10.2720 C.2    60  ILE60       0.2287
     40  O         22.1090   22.9120   10.6550 O.2    60  ILE60      -0.2864
     41  CB        24.1200   22.7950    7.9250 C.3    60  ILE60       0.0276
     42  CG1       23.9580   23.2170    6.4600 C.3    60  ILE60       0.0022
     43  CG2       23.5280   21.3960    8.1050 C.3    60  ILE60       0.0022
     44  CD1       24.9050   22.5080    5.5020 C.3    60  ILE60       0.0001
     45  N         20.7220   25.2260   12.0260 N.3    63  GLY63      -0.1210
     46  CA        19.3920   24.9230   11.4880 C.3    63  GLY63       0.1956
     47  C         18.8000   23.6770   12.1240 C.2    63  GLY63       0.2612
     48  O         17.6500   23.6820   12.5370 O.2    63  GLY63      -0.2717
     49  N         19.6070   22.6200   12.2030 N.am   64  CYS64      -0.1970
     50  CA        19.2440   21.3590   12.8320 C.3    64  CYS64       0.1712
     51  C         18.8250   21.5260   14.2920 C.2    64  CYS64       0.2296
     52  O         17.8320   20.9300   14.7200 O.2    64  CYS64      -0.2864
     53  CB        20.4050   20.3670   12.7410 C.3    64  CYS64       0.0983
     54  SG        19.9530   18.6580   13.1930 S.3    64  CYS64      -0.0798
     55  N         15.2790   23.2240   14.3760 N.3    67  ARG67      -0.1231
     56  CA        14.2020   22.2980   14.0520 C.3    67  ARG67       0.1694
     57  C         14.0130   21.3440   15.2490 C.2    67  ARG67       0.2592
     58  O         12.9050   20.9230   15.5550 O.2    67  ARG67      -0.2718
     59  CB        14.5190   21.5880   12.7200 C.3    67  ARG67       0.0321
     60  CG        13.6070   20.4430   12.2520 C.3    67  ARG67       0.0489
     61  CD        12.1260   20.7750   12.1160 C.3    67  ARG67       0.2205
     62  NE        11.4400   20.2580   13.2930 N.pl3  67  ARG67      -0.0865
     63  CZ        10.1710   19.8840   13.3520 C.cat  67  ARG67       0.5346
     64  NH1        9.3760   19.9460   12.2920 N.pl3  67  ARG67       0.1354
     65  NH2        9.7050   19.4410   14.4990 N.pl3  67  ARG67       0.1354
     66  N         15.1130   21.0340   15.9300 N.am   68  SER68      -0.1952
     67  CA        15.0760   20.2070   17.1270 C.3    68  SER68       0.1924
     68  C         14.2790   20.8540   18.2580 C.2    68  SER68       0.2314
     69  O         13.7030   20.1530   19.0760 O.2    68  SER68      -0.2863
     70  CB        16.4920   19.8960   17.6210 C.3    68  SER68       0.2116
     71  OG        17.1320   18.9730   16.7540 O.3    68  SER68      -0.2180
     72  N         10.7960   20.3020   17.3750 N.3    71  ALA71      -0.1245
     73  CA        10.5960   18.8810   17.6710 C.3    71  ALA71       0.1562
     74  C         10.3450   18.6120   19.1710 C.2    71  ALA71       0.2260
     75  O          9.4470   17.8510   19.4980 O.2    71  ALA71      -0.2867
     76  CB        11.7390   18.0260   17.1170 C.3    71  ALA71       0.0290
     77  N         13.5850   12.1890   18.9700 N.3   105  ILE105     -0.1245
     78  CA        14.0500   12.9070   17.7890 C.3   105  ILE105      0.1561
     79  C         14.7650   11.9440   16.8460 C.2   105  ILE105      0.2260
     80  O         14.4560   11.9230   15.6630 O.2   105  ILE105     -0.2867
     81  CB        14.9800   14.0990   18.1500 C.3   105  ILE105      0.0252
     82  CG1       14.1700   15.1780   18.8900 C.3   105  ILE105      0.0019
     83  CG2       15.7020   14.6380   16.8740 C.3   105  ILE105      0.0019
     84  CD1       14.9810   16.3380   19.4670 C.3   105  ILE105      0.0001
     85  N         12.4990    9.2910   15.2220 N.3   108  MET108     -0.1230
     86  CA        11.6230    9.8960   14.2320 C.3   108  MET108      0.1702
     87  C         12.3680   10.4890   13.0460 C.2   108  MET108      0.2592
     88  O         11.8230   10.5560   11.9570 O.2   108  MET108     -0.2718
     89  CB        10.6900   10.8990   14.8900 C.3   108  MET108      0.0401
     90  CG         9.6760   10.2040   15.7980 C.3   108  MET108      0.0596
     91  SD         8.4740   11.3300   16.5300 S.3   108  MET108     -0.1393
     92  CE         7.4940   11.7220   15.0710 C.3   108  MET108      0.0692
     93  N         13.6210   10.8900   13.2520 N.am  109  LEU109     -0.1980
     94  CA        14.4900   11.2530   12.1500 C.3   109  LEU109      0.1596
     95  C         14.6970   10.0520   11.2020 C.2   109  LEU109      0.2287
     96  O         14.7680   10.2350    9.9840 O.2   109  LEU109     -0.2864
     97  CB        15.8240   11.7760   12.7060 C.3   109  LEU109      0.0297
     98  CG        16.7510   12.7710   12.0020 C.3   109  LEU109      0.0022
     99  CD1       16.0170   13.8740   11.2830 C.3   109  LEU109      0.0001
    100  CD2       17.7330   13.3870   13.0520 C.3   109  LEU109      0.0001
    101  N         12.5270   10.0040    8.2490 N.3   112  LEU112     -0.1245
    102  CA        12.8760   10.9720    7.2070 C.3   112  LEU112      0.1561
    103  C         14.1380   10.5910    6.4120 C.2   112  LEU112      0.2260
    104  O         14.5450   11.3290    5.5080 O.2   112  LEU112     -0.2867
    105  CB        13.0800   12.3770    7.8220 C.3   112  LEU112      0.0270
    106  CG        12.0580   12.9130    8.8280 C.3   112  LEU112      0.0019
    107  CD1       12.3270   14.4130    9.1990 C.3   112  LEU112      0.0001
    108  CD2       10.6640   12.7450    8.3220 C.3   112  LEU112      0.0001
    109  N         18.3640   12.7620    3.8860 N.3   118  VAL118     -0.1231
    110  CA        17.3520   13.0480    4.8870 C.3   118  VAL118      0.1692
    111  C         16.3860   14.1170    4.3720 C.2   118  VAL118      0.2592
    112  O         16.8270   15.1050    3.7900 O.2   118  VAL118     -0.2718
    113  CB        18.0300   13.5160    6.2540 C.3   118  VAL118      0.0266
    114  CG1       18.8690   14.7960    6.0720 C.3   118  VAL118      0.0020
    115  CG2       16.9950   13.6900    7.3560 C.3   118  VAL118      0.0020
    116  N         15.0880   13.9280    4.6120 N.am  119  LEU119     -0.1966
    117  CA        14.1080   14.9760    4.3400 C.3   119  LEU119      0.1728
    118  C         14.2670   16.1700    5.2800 C.2   119  LEU119      0.2616
    119  O         14.4620   16.0230    6.5030 O.2   119  LEU119     -0.2715
    120  CB        12.6670   14.4530    4.4220 C.3   119  LEU119      0.0311
    121  CG        12.2800   13.3930    3.3970 C.3   119  LEU119      0.0022
    122  CD1       10.8430   12.9700    3.6220 C.3   119  LEU119      0.0001
    123  CD2       12.4500   13.9410    1.9780 C.3   119  LEU119      0.0001
    124  N         14.1740   17.3530    4.6990 N.am  120  ILE120     -0.1963
    125  CA        14.2710   18.5850    5.4670 C.3   120  ILE120      0.1727
    126  C         13.0740   19.4880    5.1580 C.2   120  ILE120      0.2617
    127  O         12.3410   19.2320    4.1950 O.2   120  ILE120     -0.2715
    128  CB        15.6250   19.2970    5.2410 C.3   120  ILE120      0.0290
    129  CG1       15.8410   19.6270    3.7700 C.3   120  ILE120      0.0022
    130  CG2       16.7860   18.4430    5.8040 C.3   120  ILE120      0.0023
    131  CD1       16.6310   20.8970    3.5750 C.3   120  ILE120      0.0001
    132  N         12.8640   20.5010    6.0010 N.am  121  SER121     -0.1936
    133  CA        11.7450   21.4470    5.8610 C.3   121  SER121      0.2055
    134  C         10.4020   20.7470    5.6450 C.2   121  SER121      0.2642
    135  O          9.7660   20.9190    4.6090 O.2   121  SER121     -0.2714
    136  CB        12.0040   22.4390    4.7190 C.3   121  SER121      0.2130
    137  OG        13.3810   22.7280    4.5980 O.3   121  SER121     -0.2179
    138  N          9.9730   19.9590    6.6390 N.am  122  GLU122     -0.1976
    139  CA         8.7660   19.1180    6.5430 C.3   122  GLU122      0.1602
    140  C          8.6670   18.4800    5.1620 C.2   122  GLU122      0.2287
    141  O          7.6340   18.5280    4.5330 O.2   122  GLU122     -0.2864
    142  CB         7.4480   19.8690    6.8980 C.3   122  GLU122      0.0415
    143  CG         6.3770   18.9160    7.5770 C.3   122  GLU122      0.1163
    144  CD         4.9040   19.1080    7.1120 C.2   122  GLU122      0.3649
    145  OE1        4.3110   20.1920    7.3750 O.co2 122  GLU122     -0.2457
    146  OE2        4.3220   18.1460    6.5190 O.co2 122  GLU122     -0.2457
    147  N         18.3950   16.5700    1.8590 N.3   127  MET127     -0.1245
    148  CA        19.8130   16.8470    1.9090 C.3   127  MET127      0.1570
    149  C         20.5750   15.5230    1.8910 C.2   127  MET127      0.2261
    150  O         20.2790   14.6160    2.6590 O.2   127  MET127     -0.2867
    151  CB        20.1340   17.6630    3.1510 C.3   127  MET127      0.0387
    152  CG        21.6090   18.0180    3.2860 C.3   127  MET127      0.0595
    153  SD        21.8790   19.4500    4.3170 S.3   127  MET127     -0.1393
    154  CE        21.1710   18.8680    5.8750 C.3   127  MET127      0.0692
    155  N         26.7140   16.0630    3.6020 N.3   132  LEU132     -0.1245
    156  CA        26.9150   16.2540    5.0390 C.3   132  LEU132      0.1561
    157  C         28.2770   15.7270    5.5090 C.2   132  LEU132      0.2260
    158  O         28.9390   16.3550    6.3210 O.2   132  LEU132     -0.2867
    159  CB        25.7690   15.6320    5.8360 C.3   132  LEU132      0.0270
    160  CG        24.4200   16.3770    5.8110 C.3   132  LEU132      0.0019
    161  CD1       23.2640   15.4630    6.2560 C.3   132  LEU132      0.0001
    162  CD2       24.4520   17.6690    6.6580 C.3   132  LEU132      0.0001
    163  N         28.6460   14.5480   12.1810 N.3   142  PHE142     -0.1227
    164  CA        27.6650   14.6400   13.2510 C.3   142  PHE142      0.1736
    165  C         26.3540   13.9160   12.9300 C.2   142  PHE142      0.2595
    166  O         25.6310   13.5070   13.8440 O.2   142  PHE142     -0.2718
    167  CB        27.4600   16.0980   13.7150 C.3   142  PHE142      0.0547
    168  CG        26.5390   16.9100   12.8600 C.ar  142  PHE142     -0.0202
    169  CD1       25.2290   17.1430   13.2580 C.ar  142  PHE142     -0.0042
    170  CD2       26.9890   17.4860   11.6750 C.ar  142  PHE142     -0.0042
    171  CE1       24.3650   17.9100   12.4740 C.ar  142  PHE142     -0.0003
    172  CE2       26.1220   18.2580   10.8740 C.ar  142  PHE142     -0.0003
    173  CZ        24.8100   18.4600   11.2840 C.ar  142  PHE142     -0.0000
    174  N         26.0850   13.7120   11.6400 N.am  143  MET143     -0.1979
    175  CA        24.8840   12.9970   11.1970 C.3   143  MET143      0.1605
    176  C         25.0820   11.5080   10.8840 C.2   143  MET143      0.2287
    177  O         24.1100   10.7360   10.8970 O.2   143  MET143     -0.2864
    178  CB        24.2210   13.7330   10.0340 C.3   143  MET143      0.0413
    179  CG        23.4400   14.9660   10.4800 C.3   143  MET143      0.0598
    180  SD        22.0630   14.6030   11.6190 S.3   143  MET143     -0.1393
    181  CE        20.9710   13.7790   10.4960 C.3   143  MET143      0.0692
@<TRIPOS>BOND
     1     1     2    1
     2     9    10    1
     3     2     3    1
     4     2     5    1
     5     3     4    2
     6    11    10    1
     7    11    12    2
     8    10    13    1
     9     6     5    1
    10     6     8    1
    11     5     7    1
    12    17    18    1
    13    13    14    1
    14    19    18    1
    15    19    20    2
    16    18    21    1
    17    14    16    1
    18    14    15    1
    19   147   148    1
    20   149   148    1
    21   149   150    2
    22   148   151    1
    23   123   121    1
    24    21    22    1
    25    24    23   ar
    26    22    23    1
    27   151   152    1
    28   152   153    1
    29   121   122    1
    30   121   120    1
    31    23    25   ar
    32    36    34    1
    33   131   129    1
    34   155   156    1
    35   129   128    1
    36   112   111    2
    37   109   110    1
    38   127   126    2
    39   153   154    1
    40   117   120    1
    41   117   116    1
    42   117   118    1
    43   111   116   am
    44   111   110    1
    45   141   140    2
    46   137   136    1
    47   135   134    2
    48   124   118   am
    49   124   125    1
    50    34    35    1
    51    34    33    2
    52   136   133    1
    53   110   113    1
    54   156   157    1
    55   156   159    1
    56   126   125    1
    57   126   132   am
    58   140   139    1
    59   128   125    1
    60   128   130    1
    61   118   119    2
    62    44    42    1
    63   104   103    2
    64   157   158    2
    65    33    32    1
    66   134   133    1
    67   134   138   am
    68   160   159    1
    69   160   161    1
    70   160   162    1
    71   133   132    1
    72   114   113    1
    73   113   115    1
    74   103   102    1
    75    42    41    1
    76   146   144   ar
    77   139   138    1
    78   139   142    1
    79   142   143    1
    80    32    31    1
    81   144   145   ar
    82   144   143    1
    83   102   105    1
    84   102   101    1
    85   105   106    1
    86    41    43    1
    87    41    38    1
    88    31    30    1
    89   108   106    1
    90    30    27    1
    91   106   107    1
    92    38    37    1
    93    38    39    1
    94    37    28   am
    95    28    27    1
    96    28    29    2
    97    27    26    1
    98    96    95    2
    99   178   179    1
   100   178   175    1
   101    39    40    2
   102   179   180    1
   103   181   180    1
   104   172   173   ar
   105   172   170   ar
   106   176   177    2
   107   176   175    1
   108   175   174    1
   109    95    94    1
   110    99    98    1
   111   173   171   ar
   112    46    45    1
   113    46    47    1
   114   174   165   am
   115   170   168   ar
   116    88    87    2
   117    98    97    1
   118    98   100    1
   119    61    60    1
   120    61    62    1
   121    47    49   am
   122    47    48    2
   123    94    97    1
   124    94    93    1
   125   163   164    1
   126    49    50    1
   127    60    59    1
   128    64    63    1
   129   171   169   ar
   130    59    56    1
   131    53    50    1
   132    53    54    1
   133    50    51    1
   134   168   169   ar
   135   168   167    1
   136   165   164    1
   137   165   166    2
   138    87    93   am
   139    87    86    1
   140   164   167    1
   141    62    63    2
   142    63    65    1
   143    56    55    1
   144    56    57    1
   145    86    89    1
   146    86    85    1
   147    51    52    2
   148    89    90    1
   149    92    91    1
   150    57    58    2
   151    57    66   am
   152    80    79    2
   153    90    91    1
   154    66    67    1
   155    71    70    1
   156    79    78    1
   157    83    81    1
   158    76    73    1
   159    67    70    1
   160    67    68    1
   161    72    73    1
   162    73    74    1
   163    78    81    1
   164    78    77    1
   165    81    82    1
   166    68    69    2
   167    82    84    1
   168    74    75    2
