@<TRIPOS>MOLECULE
tmp/2q66B00.pdb
 167 156 0 0 0
SMALL
GASTEIGER

@<TRIPOS>ATOM
      1  N         34.6850   43.4240   34.6440 N.3    83  TYR83      -0.1227
      2  CA        34.8390   42.0230   34.2640 C.3    83  TYR83       0.1736
      3  C         33.4560   41.5140   33.8420 C.2    83  TYR83       0.2596
      4  O         32.5370   42.3120   33.6570 O.2    83  TYR83      -0.2718
      5  CB        35.5380   41.1760   35.3700 C.3    83  TYR83       0.0548
      6  CG        34.7940   41.0310   36.6870 C.ar   83  TYR83      -0.0200
      7  CD1       34.2230   39.8110   37.0520 C.ar   83  TYR83      -0.0009
      8  CD2       34.7010   42.0970   37.5870 C.ar   83  TYR83      -0.0009
      9  CE1       33.5400   39.6690   38.2760 C.ar   83  TYR83       0.0417
     10  CE2       34.0200   41.9660   38.8160 C.ar   83  TYR83       0.0417
     11  CZ        33.4510   40.7500   39.1450 C.ar   83  TYR83       0.1957
     12  OH        32.7800   40.6120   40.3370 O.3    83  TYR83      -0.2866
     13  N         33.3130   40.2110   33.6270 N.am   84  GLY84      -0.1942
     14  CA        32.0370   39.6750   33.2080 C.3    84  GLY84       0.2014
     15  C         31.6020   40.1010   31.8130 C.2    84  GLY84       0.2639
     16  O         32.4110   40.5620   30.9860 O.2    84  GLY84      -0.2714
     17  N         30.3120   39.9430   31.5590 N.am   85  SER85      -0.1949
     18  CA        29.7920   40.0400   30.1970 C.3    85  SER85       0.1924
     19  C         29.8840   41.4340   29.5960 C.2    85  SER85       0.2314
     20  O         30.0030   41.5680   28.3840 O.2    85  SER85      -0.2863
     21  CB        28.3630   39.4850   30.1090 C.3    85  SER85       0.2116
     22  OG        27.4390   40.2320   30.8860 O.3    85  SER85      -0.2180
     23  N         33.3760   41.5250   28.3580 N.3    88  LEU88      -0.1245
     24  CA        33.4550   40.5820   27.2410 C.3    88  LEU88       0.1561
     25  C         32.7350   41.1030   25.9950 C.2    88  LEU88       0.2260
     26  O         32.9980   40.6240   24.8820 O.2    88  LEU88      -0.2867
     27  CB        32.8330   39.2460   27.6720 C.3    88  LEU88       0.0270
     28  CG        33.5380   37.9010   27.4510 C.3    88  LEU88       0.0019
     29  CD1       32.5160   36.7550   27.3230 C.3    88  LEU88       0.0001
     30  CD2       34.5410   37.8780   26.3170 C.3    88  LEU88       0.0001
     31  N         21.6420   42.8940   31.9410 N.3    95  SER95      -0.1202
     32  CA        22.8500   42.3560   32.5860 C.3    95  SER95       0.2020
     33  C         23.3900   43.3040   33.6490 C.2    95  SER95       0.2618
     34  O         23.2620   44.5320   33.5150 O.2    95  SER95      -0.2717
     35  CB        23.9690   42.0940   31.5570 C.3    95  SER95       0.2103
     36  OG        23.5120   41.2740   30.5040 O.3    95  SER95      -0.2182
     37  N         24.0220   42.7360   34.6730 N.am   96  ASP96      -0.1973
     38  CA        24.7450   43.5490   35.6680 C.3    96  ASP96       0.1709
     39  C         26.0370   44.1120   35.0890 C.2    96  ASP96       0.2293
     40  O         26.4690   43.7170   34.0000 O.2    96  ASP96      -0.2864
     41  CB        24.9720   42.8030   37.0140 C.3    96  ASP96       0.1436
     42  CG        25.8480   41.5290   36.9040 C.2    96  ASP96       0.3671
     43  OD1       26.3310   41.1480   35.8180 O.co2  96  ASP96      -0.2456
     44  OD2       26.1180   40.8260   37.9070 O.co2  96  ASP96      -0.2456
     45  N         29.7220   43.8820   36.3270 N.3    98  ASP98      -0.1239
     46  CA        30.6700   43.3440   37.2760 C.3    98  ASP98       0.1674
     47  C         31.8740   44.2570   37.4140 C.2    98  ASP98       0.2266
     48  O         32.5820   44.5100   36.4360 O.2    98  ASP98      -0.2867
     49  CB        31.0860   41.9580   36.8370 C.3    98  ASP98       0.1410
     50  CG        29.9100   41.0520   36.7330 C.2    98  ASP98       0.3668
     51  OD1       29.4690   40.5320   37.7850 O.co2  98  ASP98      -0.2456
     52  OD2       29.3400   40.8430   35.6430 O.co2  98  ASP98      -0.2456
     53  N         41.0080   37.4240   39.1240 N.3   185  ASN185     -0.1225
     54  CA        40.7970   36.5610   37.9730 C.3   185  ASN185      0.1785
     55  C         39.4620   36.7790   37.2690 C.2   185  ASN185      0.2597
     56  O         39.2810   36.2860   36.1810 O.2   185  ASN185     -0.2718
     57  CB        41.0640   35.0970   38.3040 C.3   185  ASN185      0.1169
     58  CG        42.5440   34.7510   38.2160 C.2   185  ASN185      0.2627
     59  OD1       43.3290   35.4890   37.6200 O.2   185  ASN185     -0.2716
     60  ND2       42.9300   33.6320   38.8120 N.am  185  ASN185     -0.0877
     61  N         38.5500   37.5430   37.8640 N.am  186  GLY186     -0.1957
     62  CA        37.3470   37.9420   37.1300 C.3   186  GLY186      0.1869
     63  C         37.7680   38.6530   35.8480 C.2   186  GLY186      0.2309
     64  O         37.3870   38.2560   34.7420 O.2   186  GLY186     -0.2863
     65  N         40.2950   36.4420   33.4870 N.3   189  VAL189     -0.1231
     66  CA        39.6200   35.3570   32.7580 C.3   189  VAL189      0.1692
     67  C         38.9270   35.8960   31.5010 C.2   189  VAL189      0.2592
     68  O         39.1060   35.3460   30.4120 O.2   189  VAL189     -0.2718
     69  CB        38.6260   34.5680   33.6610 C.3   189  VAL189      0.0266
     70  CG1       37.6290   33.7490   32.8140 C.3   189  VAL189      0.0020
     71  CG2       39.4010   33.6410   34.5890 C.3   189  VAL189      0.0020
     72  N         38.1610   36.9820   31.6500 N.am  190  THR190     -0.1953
     73  CA        37.5390   37.6300   30.4780 C.3   190  THR190      0.1897
     74  C         38.5480   37.9390   29.3840 C.2   190  THR190      0.2313
     75  O         38.3280   37.5990   28.2050 O.2   190  THR190     -0.2863
     76  CB        36.7530   38.9030   30.8690 C.3   190  THR190      0.1794
     77  OG1       35.4710   38.5170   31.3390 O.3   190  THR190     -0.2208
     78  CG2       36.3950   39.7300   29.6130 C.3   190  THR190      0.0378
     79  N         23.5490   32.6520   25.3940 N.3   211  LYS211     -0.1245
     80  CA        23.0330   33.3260   26.5950 C.3   211  LYS211      0.1561
     81  C         21.5070   33.4500   26.5040 C.2   211  LYS211      0.2260
     82  O         20.8160   33.1400   27.4710 O.2   211  LYS211     -0.2867
     83  CB        23.6770   34.6930   26.7950 C.3   211  LYS211      0.0271
     84  CG        25.1250   34.6030   27.2610 C.3   211  LYS211      0.0035
     85  CD        25.8430   35.9680   27.1510 C.3   211  LYS211      0.0206
     86  CE        25.5360   36.8650   28.3530 C.3   211  LYS211      0.1093
     87  NZ        26.1800   36.3510   29.6030 N.3   211  LYS211     -0.1314
     88  N         18.9450   31.2820   28.9100 N.3   215  GLN215     -0.1245
     89  CA        17.9460   32.0240   29.6910 C.3   215  GLN215      0.1566
     90  C         16.5250   31.5010   29.4200 C.2   215  GLN215      0.2260
     91  O         15.7880   31.1520   30.3450 O.2   215  GLN215     -0.2867
     92  CB        18.0450   33.5120   29.3830 C.3   215  GLN215      0.0367
     93  CG        19.2570   34.1670   30.0230 C.3   215  GLN215      0.0905
     94  CD        19.7960   35.3610   29.2280 C.2   215  GLN215      0.2608
     95  OE1       19.1220   35.9180   28.3480 O.2   215  GLN215     -0.2717
     96  NE2       21.0080   35.7500   29.5430 N.am  215  GLN215     -0.0878
     97  N         20.2380   28.6340   33.0160 N.3   220  TYR220     -0.1241
     98  CA        21.1800   29.7200   33.2360 C.3   220  TYR220      0.1605
     99  C         20.9250   30.2930   34.6270 C.2   220  TYR220      0.2264
    100  O         19.9460   31.0160   34.8140 O.2   220  TYR220     -0.2867
    101  CB        20.9340   30.8070   32.1780 C.3   220  TYR220      0.0534
    102  CG        21.9890   31.9010   32.0380 C.ar  220  TYR220     -0.0201
    103  CD1       22.5500   32.1760   30.7980 C.ar  220  TYR220     -0.0009
    104  CD2       22.4170   32.6620   33.1350 C.ar  220  TYR220     -0.0009
    105  CE1       23.5000   33.1800   30.6330 C.ar  220  TYR220      0.0417
    106  CE2       23.3840   33.6740   32.9810 C.ar  220  TYR220      0.0417
    107  CZ        23.9230   33.9120   31.7200 C.ar  220  TYR220      0.1957
    108  OH        24.8550   34.9010   31.5290 O.3   220  TYR220     -0.2866
    109  N         24.0310   30.2450   37.9230 N.3   222  ASN222     -0.1240
    110  CA        25.0560   29.5920   38.7240 C.3   222  ASN222      0.1653
    111  C         24.5790   29.2650   40.1410 C.2   222  ASN222      0.2266
    112  O         24.8660   28.1790   40.6790 O.2   222  ASN222     -0.2867
    113  CB        26.3030   30.4580   38.8180 C.3   222  ASN222      0.1155
    114  CG        27.3930   29.7800   39.6090 C.2   222  ASN222      0.2627
    115  OD1       27.9220   28.7620   39.1800 O.2   222  ASN222     -0.2716
    116  ND2       27.7340   30.3400   40.7640 N.am  222  ASN222     -0.0877
    117  N         26.5470   29.6010   34.6430 N.3   228  GLY228     -0.1210
    118  CA        26.3270   31.0420   34.5230 C.3   228  GLY228      0.1956
    119  C         27.0600   31.5820   33.3050 C.2   228  GLY228      0.2612
    120  O         27.5170   30.8200   32.4440 O.2   228  GLY228     -0.2717
    121  N         27.2090   32.9000   33.2670 N.am  229  GLY229     -0.1942
    122  CA        27.8040   33.5810   32.1180 C.3   229  GLY229      0.2014
    123  C         29.1870   33.0980   31.7190 C.2   229  GLY229      0.2638
    124  O         29.4370   32.9090   30.5400 O.2   229  GLY229     -0.2714
    125  N         30.0940   32.9020   32.6850 N.am  230  VAL230     -0.1977
    126  CA        31.4760   32.5580   32.3050 C.3   230  VAL230      0.1596
    127  C         31.5610   31.1150   31.8180 C.2   230  VAL230      0.2287
    128  O         32.3290   30.8220   30.9140 O.2   230  VAL230     -0.2864
    129  CB        32.5360   32.8560   33.4190 C.3   230  VAL230      0.0276
    130  CG1       32.4770   31.8260   34.5640 C.3   230  VAL230      0.0022
    131  CG2       33.9710   32.9870   32.8330 C.3   230  VAL230      0.0022
    132  N         38.5510   27.4650   34.1130 N.3   300  THR300     -0.1218
    133  CA        39.0220   28.8190   33.7330 C.3   300  THR300      0.1862
    134  C         40.4580   28.7690   33.2430 C.2   300  THR300      0.2287
    135  O         41.2420   27.9610   33.7620 O.2   300  THR300     -0.2866
    136  CB        38.8920   29.8180   34.8980 C.3   300  THR300      0.1770
    137  OG1       39.5760   29.3210   36.0650 O.3   300  THR300     -0.2211
    138  CG2       37.4380   29.9600   35.3390 C.3   300  THR300      0.0375
    139  N         40.4690   27.2090   37.8730 N.3   306  MET306     -0.1230
    140  CA        39.4280   26.6870   38.7590 C.3   306  MET306      0.1702
    141  C         38.2490   26.1710   37.9310 C.2   306  MET306      0.2592
    142  O         38.1270   26.4990   36.7460 O.2   306  MET306     -0.2718
    143  CB        38.9570   27.7640   39.7600 C.3   306  MET306      0.0401
    144  CG        38.2080   28.9610   39.1420 C.3   306  MET306      0.0596
    145  SD        37.4130   30.0620   40.3480 S.3   306  MET306     -0.1393
    146  CE        36.0260   29.0570   40.8710 C.3   306  MET306      0.0692
    147  N         37.3740   25.3890   38.5510 N.am  307  CYS307     -0.1956
    148  CA        36.1630   24.9470   37.8670 C.3   307  CYS307      0.1843
    149  C         35.0300   25.9590   38.0070 C.2   307  CYS307      0.2625
    150  O         34.6200   26.3020   39.1250 O.2   307  CYS307     -0.2714
    151  CB        35.7120   23.5770   38.3760 C.3   307  CYS307      0.0997
    152  SG        34.2850   22.9830   37.4410 S.3   307  CYS307     -0.0797
    153  N         34.5030   26.4050   36.8680 N.am  308  ALA308     -0.1977
    154  CA        33.3870   27.3690   36.8460 C.3   308  ALA308      0.1597
    155  C         31.9800   26.7430   36.9900 C.2   308  ALA308      0.2287
    156  O         30.9670   27.4620   36.9120 O.2   308  ALA308     -0.2864
    157  CB        33.4790   28.2260   35.5900 C.3   308  ALA308      0.0319
    158  N         31.1920   24.1500   39.5810 N.3   310  HIS310     -0.1241
    159  CA        31.1150   23.4000   40.8430 C.3   310  HIS310      0.1621
    160  C         29.6790   23.0770   41.2900 C.2   310  HIS310      0.2264
    161  O         29.4220   21.9890   41.8280 O.2   310  HIS310     -0.2867
    162  CB        31.8630   24.2000   41.9180 C.3   310  HIS310      0.0745
    163  CG        31.7810   23.6110   43.2890 C.ar  310  HIS310      0.0817
    164  ND1       32.7160   22.7190   43.7760 N.ar  310  HIS310     -0.2268
    165  CD2       30.8940   23.8140   44.2900 C.ar  310  HIS310      0.1154
    166  CE1       32.3940   22.3850   45.0120 C.ar  310  HIS310      0.1986
    167  NE2       31.2970   23.0380   45.3490 N.ar  310  HIS310     -0.2212
@<TRIPOS>BOND
     1    26    25    2
     2    79    80    1
     3    25    24    1
     4    30    28    1
     5    81    80    1
     6    81    82    2
     7    80    83    1
     8    83    84    1
     9    85    84    1
    10    85    86    1
    11    24    27    1
    12    24    23    1
    13    29    28    1
    14    28    27    1
    15    75    74    2
    16    95    94    2
    17    86    87    1
    18    20    19    2
    19    88    89    1
    20    94    96   am
    21    94    93    1
    22    92    89    1
    23    92    93    1
    24    74    73    1
    25    90    89    1
    26    90    91    2
    27    19    18    1
    28    78    76    1
    29    21    18    1
    30    21    22    1
    31    18    17    1
    32    68    67    2
    33    73    76    1
    34    73    72    1
    35    36    35    1
    36   124   123    2
    37   105   103   ar
    38   105   107   ar
    39   103   102   ar
    40    76    77    1
    41   128   127    2
    42    16    15    2
    43    67    72   am
    44    67    66    1
    45   108   107    1
    46    35    32    1
    47    17    15   am
    48   123   122    1
    49   123   125   am
    50   107   106   ar
    51    15    14    1
    52   127   126    1
    53    31    32    1
    54   102   101    1
    55   102   104   ar
    56   122   121    1
    57   101    98    1
    58   126   125    1
    59   126   129    1
    60   120   119    2
    61    32    33    1
    62    66    65    1
    63    66    69    1
    64    70    69    1
    65   131   129    1
    66   106   104   ar
    67    97    98    1
    68    14    13    1
    69    98    99    1
    70   134   133    1
    71   134   135    2
    72   121   119   am
    73   119   118    1
    74   129   130    1
    75    34    33    2
    76    13     3   am
    77    33    37   am
    78     4     3    2
    79    69    71    1
    80   133   132    1
    81   133   136    1
    82     3     2    1
    83    40    39    2
    84     2     1    1
    85     2     5    1
    86   118   117    1
    87    99   100    2
    88    37    38    1
    89    64    63    2
    90   136   138    1
    91   136   137    1
    92    39    38    1
    93     5     6    1
    94   157   154    1
    95    52    50   ar
    96    38    41    1
    97    43    42   ar
    98    63    62    1
    99    56    55    2
   100    45    46    1
   101    48    47    2
   102     6     7   ar
   103     6     8   ar
   104    50    49    1
   105    50    51   ar
   106   142   141    2
   107    49    46    1
   108   154   153    1
   109   154   155    1
   110   153   149   am
   111    42    41    1
   112    42    44   ar
   113   156   155    2
   114     7     9   ar
   115    62    61    1
   116    55    61   am
   117    55    54    1
   118    46    47    1
   119   152   151    1
   120     8    10   ar
   121    59    58    2
   122   148   149    1
   123   148   151    1
   124   148   147    1
   125   139   140    1
   126   109   110    1
   127   141   147   am
   128   141   140    1
   129    54    57    1
   130    54    53    1
   131   149   150    2
   132    58    57    1
   133    58    60   am
   134     9    11   ar
   135   110   113    1
   136   110   111    1
   137   140   143    1
   138    10    11   ar
   139   113   114    1
   140   144   143    1
   141   144   145    1
   142    11    12    1
   143   115   114    2
   144   158   159    1
   145   114   116   am
   146   111   112    2
   147   145   146    1
   148   159   160    1
   149   159   162    1
   150   160   161    2
   151   162   163    1
   152   163   164   ar
   153   163   165   ar
   154   164   166   ar
   155   165   167   ar
   156   166   167   ar
