@<TRIPOS>MOLECULE
tmp/2q6bB00.pdb
 133 126 0 0 0
SMALL
GASTEIGER

@<TRIPOS>ATOM
      1  N         26.7730   -0.3450   -5.1840 N.3   119  GLU119     -0.1231
      2  CA        27.9970   -1.1420   -5.2010 C.3   119  GLU119      0.1699
      3  C         27.7950   -2.3870   -6.0550 C.2   119  GLU119      0.2593
      4  O         26.9610   -3.2410   -5.7370 O.2   119  GLU119     -0.2718
      5  CB        28.4180   -1.5490   -3.7860 C.3   119  GLU119      0.0402
      6  CG        29.6100   -2.4970   -3.7560 C.3   119  GLU119      0.1161
      7  CD        30.2750   -2.5940   -2.3950 C.2   119  GLU119      0.3649
      8  OE1       29.5940   -2.3810   -1.3700 O.co2 119  GLU119     -0.2457
      9  OE2       31.4860   -2.8990   -2.3540 O.co2 119  GLU119     -0.2457
     10  N         28.5760   -2.4910   -7.1260 N.am  120  GLY120     -0.1942
     11  CA        28.5030   -3.6220   -8.0310 C.3   120  GLY120      0.2014
     12  C         28.8810   -4.9290   -7.3620 C.2   120  GLY120      0.2639
     13  O         29.7430   -4.9670   -6.4820 O.2   120  GLY120     -0.2714
     14  N         28.2130   -5.9930   -7.7950 N.am  121  CYS121     -0.1953
     15  CA        28.3860   -7.3570   -7.2890 C.3   121  CYS121      0.1843
     16  C         27.8270   -7.6460   -5.8870 C.2   121  CYS121      0.2625
     17  O         27.8140   -8.8020   -5.4800 O.2   121  CYS121     -0.2714
     18  CB        29.8570   -7.7940   -7.3670 C.3   121  CYS121      0.0997
     19  SG        30.5650   -7.7170   -9.0230 S.3   121  CYS121     -0.0797
     20  N         27.3600   -6.6340   -5.1540 N.am  122  LEU122     -0.1977
     21  CA        26.8410   -6.8590   -3.7970 C.3   122  LEU122      0.1596
     22  C         25.5660   -7.6980   -3.8070 C.2   122  LEU122      0.2287
     23  O         25.4290   -8.6270   -3.0100 O.2   122  LEU122     -0.2864
     24  CB        26.5740   -5.5380   -3.0620 C.3   122  LEU122      0.0297
     25  CG        25.8820   -5.6540   -1.6930 C.3   122  LEU122      0.0022
     26  CD1       26.7270   -6.4630   -0.7010 C.3   122  LEU122      0.0001
     27  CD2       25.5650   -4.2850   -1.1270 C.3   122  LEU122      0.0001
     28  N         24.4590   -9.6630   -6.3010 N.3   124  ALA124     -0.1231
     29  CA        24.8010  -10.9750   -6.8500 C.3   124  ALA124      0.1694
     30  C         25.5030  -11.8580   -5.8190 C.2   124  ALA124      0.2592
     31  O         25.2820  -13.0640   -5.7800 O.2   124  ALA124     -0.2718
     32  CB        25.6740  -10.8170   -8.0860 C.3   124  ALA124      0.0304
     33  N         26.3410  -11.2520   -4.9830 N.am  125  SER125     -0.1952
     34  CA        27.0530  -11.9790   -3.9370 C.3   125  SER125      0.1924
     35  C         26.0910  -12.4660   -2.8650 C.2   125  SER125      0.2314
     36  O         26.1740  -13.6080   -2.4230 O.2   125  SER125     -0.2863
     37  CB        28.1160  -11.0950   -3.2920 C.3   125  SER125      0.2116
     38  OG        28.9150  -11.8480   -2.3990 O.3   125  SER125     -0.2180
     39  N         24.0350  -15.3540   -4.0630 N.3   128  ARG128     -0.1245
     40  CA        24.8120  -16.5890   -4.0420 C.3   128  ARG128      0.1563
     41  C         24.8330  -17.2000   -2.6370 C.2   128  ARG128      0.2260
     42  O         24.7920  -18.4180   -2.4830 O.2   128  ARG128     -0.2867
     43  CB        26.2320  -16.2880   -4.5290 C.3   128  ARG128      0.0307
     44  CG        27.1960  -17.4630   -4.5730 C.3   128  ARG128      0.0489
     45  CD        28.5880  -17.1000   -4.0660 C.3   128  ARG128      0.2205
     46  NE        29.6560  -17.7200   -4.8340 N.pl3 128  ARG128     -0.0865
     47  CZ        30.9510  -17.5060   -4.6300 C.cat 128  ARG128      0.5346
     48  NH1       31.8360  -18.1270   -5.3940 N.pl3 128  ARG128      0.1354
     49  NH2       31.3680  -16.6800   -3.6700 N.pl3 128  ARG128      0.1354
     50  N         40.3650  -13.4630   10.2060 N.3   295  LYS295     -0.1245
     51  CA        39.8800  -12.1860    9.6830 C.3   295  LYS295      0.1561
     52  C         38.8670  -11.6110   10.6650 C.2   295  LYS295      0.2260
     53  O         39.1010  -10.5650   11.2650 O.2   295  LYS295     -0.2867
     54  CB        39.2450  -12.3640    8.2970 C.3   295  LYS295      0.0271
     55  CG        38.5110  -11.1450    7.7430 C.3   295  LYS295      0.0035
     56  CD        37.8250  -11.4840    6.4290 C.3   295  LYS295      0.0206
     57  CE        36.8400  -10.4110    6.0140 C.3   295  LYS295      0.1093
     58  NZ        37.5200   -9.1550    5.6190 N.3   295  LYS295     -0.1314
     59  N         32.5610   -9.6340    8.2630 N.3   311  ALA311     -0.1231
     60  CA        33.1530   -9.2330    6.9920 C.3   311  ALA311      0.1694
     61  C         32.5460   -7.9370    6.4570 C.2   311  ALA311      0.2592
     62  O         33.2670   -6.9670    6.2360 O.2   311  ALA311     -0.2718
     63  CB        33.0110  -10.3510    5.9710 C.3   311  ALA311      0.0304
     64  N         31.2310   -7.9190    6.2480 N.am  312  HIS312     -0.1976
     65  CA        30.5530   -6.7400    5.6950 C.3   312  HIS312      0.1656
     66  C         29.0550   -6.6910    5.9940 C.2   312  HIS312      0.2291
     67  O         28.2540   -6.3890    5.1160 O.2   312  HIS312     -0.2864
     68  CB        30.7950   -6.6310    4.1760 C.3   312  HIS312      0.0771
     69  CG        30.1640   -7.7280    3.3700 C.ar  312  HIS312      0.0820
     70  ND1       30.1470   -7.7210    1.9930 N.ar  312  HIS312     -0.2267
     71  CD2       29.5370   -8.8690    3.7440 C.ar  312  HIS312      0.1154
     72  CE1       29.5410   -8.8110    1.5540 C.ar  312  HIS312      0.1986
     73  NE2       29.1560   -9.5220    2.5970 N.ar  312  HIS312     -0.2212
     74  N         27.2260   -3.6010    4.6810 N.3   315  ASN315     -0.1240
     75  CA        26.7530   -3.5670    3.2910 C.3   315  ASN315      0.1653
     76  C         25.2950   -4.0020    3.1670 C.2   315  ASN315      0.2266
     77  O         24.5040   -3.3450    2.4920 O.2   315  ASN315     -0.2867
     78  CB        27.6090   -4.4710    2.3870 C.3   315  ASN315      0.1155
     79  CG        28.8350   -3.7700    1.8240 C.2   315  ASN315      0.2627
     80  OD1       28.9470   -2.5400    1.8530 O.2   315  ASN315     -0.2716
     81  ND2       29.7590   -4.5590    1.2910 N.am  315  ASN315     -0.0877
     82  N         29.0320  -15.5960    1.2620 N.3   412  SER412     -0.1202
     83  CA        29.5050  -15.3930   -0.1020 C.3   412  SER412      0.2020
     84  C         30.8190  -14.6240   -0.1630 C.2   412  SER412      0.2618
     85  O         31.7240  -15.0190   -0.8910 O.2   412  SER412     -0.2717
     86  CB        28.4380  -14.6780   -0.9320 C.3   412  SER412      0.2103
     87  OG        28.8430  -14.5620   -2.2830 O.3   412  SER412     -0.2182
     88  N         30.9270  -13.5280    0.5870 N.am  413  LEU413     -0.1979
     89  CA        32.1640  -12.7420    0.5990 C.3   413  LEU413      0.1596
     90  C         33.3210  -13.5200    1.2250 C.2   413  LEU413      0.2287
     91  O         34.4380  -13.4680    0.7260 O.2   413  LEU413     -0.2864
     92  CB        31.9850  -11.4020    1.3230 C.3   413  LEU413      0.0297
     93  CG        33.2380  -10.5120    1.3540 C.3   413  LEU413      0.0022
     94  CD1       33.6870  -10.1470   -0.0570 C.3   413  LEU413      0.0001
     95  CD2       33.0200   -9.2570    2.1850 C.3   413  LEU413      0.0001
     96  N         34.6290  -15.9670   -1.2470 N.3   416  ALA416     -0.1231
     97  CA        35.3960  -15.3020   -2.2960 C.3   416  ALA416      0.1694
     98  C         36.7920  -14.9130   -1.8110 C.2   416  ALA416      0.2591
     99  O         37.7580  -15.0020   -2.5620 O.2   416  ALA416     -0.2718
    100  CB        34.6500  -14.0830   -2.7980 C.3   416  ALA416      0.0304
    101  N         36.8940  -14.4850   -0.5560 N.am  417  LEU417     -0.1980
    102  CA        38.1800  -14.1250    0.0370 C.3   417  LEU417      0.1596
    103  C         39.0240  -15.3700    0.2910 C.2   417  LEU417      0.2287
    104  O         40.2420  -15.3420    0.1290 O.2   417  LEU417     -0.2864
    105  CB        37.9780  -13.3560    1.3480 C.3   417  LEU417      0.0297
    106  CG        37.3700  -11.9570    1.2230 C.3   417  LEU417      0.0022
    107  CD1       36.9090  -11.4470    2.5820 C.3   417  LEU417      0.0001
    108  CD2       38.3620  -10.9930    0.6050 C.3   417  LEU417      0.0001
    109  N         38.8500  -15.3610   -5.2650 N.3   421  HIS421     -0.1226
    110  CA        38.0680  -14.9210   -6.4240 C.3   421  HIS421      0.1752
    111  C         37.5660  -13.4900   -6.2200 C.2   421  HIS421      0.2596
    112  O         36.4210  -13.2700   -5.8160 O.2   421  HIS421     -0.2718
    113  CB        36.8980  -15.8820   -6.6590 C.3   421  HIS421      0.0759
    114  CG        37.3200  -17.3100   -6.8150 C.ar  421  HIS421      0.0818
    115  ND1       36.5990  -18.3620   -6.2930 N.ar  421  HIS421     -0.2268
    116  CD2       38.3960  -17.8580   -7.4280 C.ar  421  HIS421      0.1154
    117  CE1       37.2100  -19.4980   -6.5840 C.ar  421  HIS421      0.1986
    118  NE2       38.3030  -19.2190   -7.2710 N.ar  421  HIS421     -0.2212
    119  N         38.4350  -12.5240   -6.5140 N.am  422  LEU422     -0.1966
    120  CA        38.1870  -11.1140   -6.2070 C.3   422  LEU422      0.1728
    121  C         37.8500  -10.2840   -7.4550 C.2   422  LEU422      0.2616
    122  O         38.0280   -9.0630   -7.4580 O.2   422  LEU422     -0.2715
    123  CB        39.4100  -10.5130   -5.4960 C.3   422  LEU422      0.0311
    124  CG        39.6980  -10.8360   -4.0180 C.3   422  LEU422      0.0022
    125  CD1       39.0150  -12.1000   -3.5070 C.3   422  LEU422      0.0001
    126  CD2       41.2060  -10.9320   -3.7920 C.3   422  LEU422      0.0001
    127  N         37.3450  -10.9400   -8.5010 N.am  423  VAL423     -0.1977
    128  CA        36.9780  -10.2530   -9.7430 C.3   423  VAL423      0.1596
    129  C         35.4960   -9.8950   -9.7640 C.2   423  VAL423      0.2287
    130  O         35.1220   -8.7820  -10.1400 O.2   423  VAL423     -0.2864
    131  CB        37.3230  -11.0930  -11.0020 C.3   423  VAL423      0.0276
    132  CG1       38.8280  -11.2670  -11.1270 C.3   423  VAL423      0.0022
    133  CG2       36.6160  -12.4560  -10.9910 C.3   423  VAL423      0.0022
@<TRIPOS>BOND
     1   132   131    1
     2   131   133    1
     3   131   128    1
     4   130   129    2
     5   129   128    1
     6   128   127    1
     7    19    18    1
     8   127   121   am
     9    32    29    1
    10    11    12    1
    11    11    10    1
    12    14    12   am
    13    14    15    1
    14   122   121    2
    15   121   120    1
    16   116   118   ar
    17   116   114   ar
    18    18    15    1
    19    12    13    2
    20    15    16    1
    21   118   117   ar
    22    10     3   am
    23    29    28    1
    24    29    30    1
    25   114   113    1
    26   114   115   ar
    27   113   110    1
    28   117   115   ar
    29   119   111   am
    30   119   120    1
    31   110   111    1
    32   110   109    1
    33   111   112    2
    34   120   123    1
    35     3     4    2
    36     3     2    1
    37    16    17    2
    38    16    20   am
    39    30    31    2
    40    30    33   am
    41   123   124    1
    42    48    47    1
    43     2     1    1
    44     2     5    1
    45    20    21    1
    46    33    34    1
    47    46    47    2
    48    46    45    1
    49    47    49    1
    50    44    43    1
    51    44    45    1
    52    43    40    1
    53    39    40    1
    54    40    41    1
    55   124   126    1
    56   124   125    1
    57    34    37    1
    58    34    35    1
    59    22    21    1
    60    22    23    2
    61    21    24    1
    62     5     6    1
    63     6     7    1
    64    37    38    1
    65    24    25    1
    66    35    36    2
    67   100    97    1
    68    41    42    2
    69    99    98    2
    70     7     9   ar
    71     7     8   ar
    72    97    98    1
    73    97    96    1
    74    87    86    1
    75    98   101   am
    76    25    27    1
    77    25    26    1
    78    86    83    1
    79    85    84    2
    80   101   102    1
    81    84    83    1
    82    84    88   am
    83    83    82    1
    84    94    93    1
    85   102   103    1
    86   102   105    1
    87   104   103    2
    88    88    89    1
    89    89    90    1
    90    89    92    1
    91   108   106    1
    92    91    90    2
    93   106   105    1
    94   106   107    1
    95    81    79   am
    96    92    93    1
    97    93    95    1
    98    72    70   ar
    99    72    73   ar
   100    79    80    2
   101    79    78    1
   102    70    69   ar
   103    78    75    1
   104    77    76    2
   105    73    71   ar
   106    76    75    1
   107    75    74    1
   108    69    71   ar
   109    69    68    1
   110    68    65    1
   111    67    66    2
   112    58    57    1
   113    65    66    1
   114    65    64    1
   115    63    60    1
   116    57    56    1
   117    62    61    2
   118    64    61   am
   119    56    55    1
   120    61    60    1
   121    60    59    1
   122    55    54    1
   123    54    51    1
   124    51    50    1
   125    51    52    1
   126    52    53    2
