@<TRIPOS>MOLECULE
tmp/2q6bB01.pdb
 95 87 0 0 0
SMALL
GASTEIGER

@<TRIPOS>ATOM
      1  N         16.7990    5.4020   25.2290 N.3   150  ARG150     -0.1245
      2  CA        17.2750    6.7790   25.2930 C.3   150  ARG150      0.1563
      3  C         18.0530    6.9390   26.5950 C.2   150  ARG150      0.2260
      4  O         17.6620    6.3940   27.6250 O.2   150  ARG150     -0.2867
      5  CB        16.0970    7.7550   25.2460 C.3   150  ARG150      0.0307
      6  CG        16.4660    9.2330   25.3020 C.3   150  ARG150      0.0489
      7  CD        17.4160    9.6860   24.2060 C.3   150  ARG150      0.2205
      8  NE        16.7360    9.9500   22.9440 N.pl3 150  ARG150     -0.0865
      9  CZ        17.3410   10.0590   21.7650 C.cat 150  ARG150      0.5346
     10  NH1       16.6170   10.3080   20.6830 N.pl3 150  ARG150      0.1354
     11  NH2       18.6600    9.9170   21.6530 N.pl3 150  ARG150      0.1354
     12  N         12.0090    5.7900   18.5320 N.3   217  MET217     -0.1230
     13  CA        12.8520    6.8480   19.0900 C.3   217  MET217      0.1702
     14  C         12.0360    8.0360   19.6000 C.2   217  MET217      0.2592
     15  O         12.3410    8.5860   20.6550 O.2   217  MET217     -0.2718
     16  CB        13.9080    7.3080   18.0820 C.3   217  MET217      0.0401
     17  CG        15.2600    6.6640   18.3180 C.3   217  MET217      0.0596
     18  SD        16.0970    7.3500   19.7620 S.3   217  MET217     -0.1393
     19  CE        17.5210    7.8070   19.0800 C.3   217  MET217      0.0692
     20  N         11.0010    8.4210   18.8580 N.am  218  ASN218     -0.1974
     21  CA        10.1060    9.4940   19.2900 C.3   218  ASN218      0.1688
     22  C          9.2450    9.0600   20.4740 C.2   218  ASN218      0.2292
     23  O          9.0190    9.8350   21.3980 O.2   218  ASN218     -0.2864
     24  CB         9.2180    9.9610   18.1340 C.3   218  ASN218      0.1181
     25  CG         9.9900   10.7500   17.0930 C.2   218  ASN218      0.2629
     26  OD1       10.6020   11.7760   17.4000 O.2   218  ASN218     -0.2716
     27  ND2        9.9690   10.2730   15.8530 N.am  218  ASN218     -0.0877
     28  N         11.4690    8.9350   23.5820 N.3   221  SER221     -0.1217
     29  CA        11.8720   10.2810   23.9820 C.3   221  SER221      0.1889
     30  C         10.7710   10.9650   24.7890 C.2   221  SER221      0.2288
     31  O         11.0550   11.6500   25.7630 O.2   221  SER221     -0.2866
     32  CB        12.2270   11.1330   22.7570 C.3   221  SER221      0.2089
     33  OG        13.4090   10.6580   22.1290 O.3   221  SER221     -0.2183
     34  N         11.0140   12.0760   28.7680 N.3   225  GLU225     -0.1245
     35  CA        10.7610   13.4440   29.2290 C.3   225  GLU225      0.1567
     36  C          9.7850   13.4470   30.4020 C.2   225  GLU225      0.2260
     37  O          9.9650   14.1850   31.3700 O.2   225  GLU225     -0.2867
     38  CB        10.1890   14.3030   28.0950 C.3   225  GLU225      0.0388
     39  CG        11.2230   14.8230   27.1090 C.3   225  GLU225      0.1160
     40  CD        10.6250   15.7880   26.1010 C.2   225  GLU225      0.3649
     41  OE1       10.7980   15.5700   24.8820 O.co2 225  GLU225     -0.2457
     42  OE2        9.9720   16.7660   26.5270 O.co2 225  GLU225     -0.2457
     43  N         18.3220   15.4820   27.1320 N.3   243  VAL243     -0.1231
     44  CA        17.4510   14.3180   26.9910 C.3   243  VAL243      0.1692
     45  C         18.2300   13.1390   26.4030 C.2   243  VAL243      0.2592
     46  O         17.8960   11.9800   26.6480 O.2   243  VAL243     -0.2718
     47  CB        16.2070   14.6420   26.1210 C.3   243  VAL243      0.0266
     48  CG1       16.6040   14.9660   24.6760 C.3   243  VAL243      0.0020
     49  CG2       15.2040   13.5010   26.1610 C.3   243  VAL243      0.0020
     50  N         19.2570   13.4500   25.6160 N.am  244  SER244     -0.1952
     51  CA        20.2410   12.4660   25.1920 C.3   244  SER244      0.1924
     52  C         21.6270   12.8900   25.6510 C.2   244  SER244      0.2314
     53  O         22.1620   13.8950   25.1800 O.2   244  SER244     -0.2863
     54  CB        20.2400   12.3130   23.6750 C.3   244  SER244      0.2116
     55  OG        21.3380   11.5130   23.2650 O.3   244  SER244     -0.2180
     56  N         24.2000   10.7800   25.1990 N.3   246  ASN246     -0.1240
     57  CA        25.0070    9.7950   24.4600 C.3   246  ASN246      0.1653
     58  C         25.1550    8.4240   25.1390 C.2   246  ASN246      0.2266
     59  O         26.0200    7.6260   24.7660 O.2   246  ASN246     -0.2867
     60  CB        26.3850   10.3800   24.0900 C.3   246  ASN246      0.1155
     61  CG        26.3340   11.2660   22.8530 C.2   246  ASN246      0.2627
     62  OD1       25.2630   11.5470   22.3140 O.2   246  ASN246     -0.2716
     63  ND2       27.5010   11.6980   22.3890 N.am  246  ASN246     -0.0877
     64  N         22.6310    6.2470   25.1230 N.3   248  CYS248     -0.1235
     65  CA        21.5650    5.4290   24.5310 C.3   248  CYS248      0.1677
     66  C         22.0570    4.0850   23.9660 C.2   248  CYS248      0.2270
     67  O         21.5020    3.0500   24.3320 O.2   248  CYS248     -0.2867
     68  CB        20.7600    6.2010   23.4710 C.3   248  CYS248      0.0956
     69  SG        20.6010    7.9780   23.7670 S.3   248  CYS248     -0.0801
     70  N         22.7850    6.3190   20.4210 N.3   250  ASP250     -0.1225
     71  CA        22.1780    6.4050   19.0980 C.3   250  ASP250      0.1805
     72  C         23.1330    6.9910   18.0660 C.2   250  ASP250      0.2598
     73  O         23.6950    8.0700   18.2690 O.2   250  ASP250     -0.2718
     74  CB        20.9150    7.2600   19.1540 C.3   250  ASP250      0.1424
     75  CG        20.1670    7.2770   17.8360 C.2   250  ASP250      0.3668
     76  OD1       19.9020    6.1880   17.2780 O.co2 250  ASP250     -0.2456
     77  OD2       19.7840    8.3310   17.2890 O.co2 250  ASP250     -0.2456
     78  N         23.3020    6.2640   16.9600 N.am  251  LYS251     -0.1966
     79  CA        24.0700    6.7080   15.7940 C.3   251  LYS251      0.1728
     80  C         25.5570    6.9870   16.0620 C.2   251  LYS251      0.2616
     81  O         26.1990    7.7340   15.3200 O.2   251  LYS251     -0.2715
     82  CB        23.3800    7.9110   15.1450 C.3   251  LYS251      0.0311
     83  CG        22.0150    7.5600   14.5830 C.3   251  LYS251      0.0038
     84  CD        21.2850    8.7650   14.0360 C.3   251  LYS251      0.0206
     85  CE        19.9170    8.3610   13.5130 C.3   251  LYS251      0.1093
     86  NZ        19.0880    9.5180   13.0990 N.3   251  LYS251     -0.1314
     87  N         26.0920    6.3880   17.1230 N.am  252  LYS252     -0.1977
     88  CA        27.5270    6.3940   17.3960 C.3   252  LYS252      0.1596
     89  C         27.9530    5.0000   17.8480 C.2   252  LYS252      0.2287
     90  O         27.1800    4.3070   18.5070 O.2   252  LYS252     -0.2864
     91  CB        27.8650    7.3800   18.5120 C.3   252  LYS252      0.0298
     92  CG        27.9750    8.8390   18.0860 C.3   252  LYS252      0.0038
     93  CD        26.6570    9.5870   18.1940 C.3   252  LYS252      0.0206
     94  CE        26.1550    9.6960   19.6280 C.3   252  LYS252      0.1093
     95  NZ        24.8350   10.3630   19.6900 N.3   252  LYS252     -0.1314
@<TRIPOS>BOND
     1    86    85    1
     2    85    84    1
     3    84    83    1
     4    83    82    1
     5    82    79    1
     6    81    80    2
     7    79    80    1
     8    79    78    1
     9    27    25   am
    10    80    87   am
    11    78    72   am
    12    25    26    2
    13    25    24    1
    14    87    88    1
    15    76    75   ar
    16    77    75   ar
    17    88    89    1
    18    88    91    1
    19    75    74    1
    20    89    90    2
    21    72    73    2
    22    72    71    1
    23    16    17    1
    24    16    13    1
    25    92    93    1
    26    92    91    1
    27    24    21    1
    28    93    94    1
    29    17    18    1
    30    12    13    1
    31    20    21    1
    32    20    14   am
    33    19    18    1
    34    13    14    1
    35    71    74    1
    36    71    70    1
    37    21    22    1
    38    14    15    2
    39    94    95    1
    40    22    23    2
    41    10     9    1
    42    11     9    1
    43     9     8    2
    44    33    32    1
    45    62    61    2
    46    63    61   am
    47    32    29    1
    48    61    60    1
    49     8     7    1
    50    55    54    1
    51    68    69    1
    52    68    65    1
    53    28    29    1
    54    54    51    1
    55    66    67    2
    56    66    65    1
    57    29    30    1
    58    60    57    1
    59     7     6    1
    60    57    58    1
    61    57    56    1
    62    65    64    1
    63    48    47    1
    64    59    58    2
    65    30    31    2
    66    41    40   ar
    67    53    52    2
    68    51    50    1
    69    51    52    1
    70     1     2    1
    71     5     2    1
    72     5     6    1
    73     2     3    1
    74    50    45   am
    75    40    42   ar
    76    40    39    1
    77    47    49    1
    78    47    44    1
    79    45    46    2
    80    45    44    1
    81     3     4    2
    82    44    43    1
    83    39    38    1
    84    38    35    1
    85    34    35    1
    86    35    36    1
    87    36    37    2
