@<TRIPOS>MOLECULE
tmp/2q6cA01.pdb
 86 79 0 0 0
SMALL
GASTEIGER

@<TRIPOS>ATOM
      1  N         70.0150   -1.1810   -1.1230 N.3   150  ARG150     -0.1245
      2  CA        69.9870    0.2750   -1.1460 C.3   150  ARG150      0.1563
      3  C         68.7230    0.7330   -0.4250 C.2   150  ARG150      0.2260
      4  O         67.6460    0.1670   -0.6230 O.2   150  ARG150     -0.2867
      5  CB        70.0210    0.7990   -2.5840 C.3   150  ARG150      0.0307
      6  CG        70.0950    2.3200   -2.7140 C.3   150  ARG150      0.0489
      7  CD        71.2570    2.9650   -1.9610 C.3   150  ARG150      0.2205
      8  NE        72.5020    2.9430   -2.7180 N.pl3 150  ARG150     -0.0865
      9  CZ        73.6900    3.2790   -2.2260 C.cat 150  ARG150      0.5346
     10  NH1       73.8230    3.6570   -0.9540 N.pl3 150  ARG150      0.1354
     11  NH2       74.7540    3.2440   -3.0160 N.pl3 150  ARG150      0.1354
     12  N         76.6680   -2.4980   -6.0120 N.3   217  MET217     -0.1230
     13  CA        76.2940   -1.1280   -5.6440 C.3   217  MET217      0.1702
     14  C         75.5980   -0.3710   -6.7770 C.2   217  MET217      0.2592
     15  O         74.5020    0.1580   -6.5910 O.2   217  MET217     -0.2718
     16  CB        77.5320   -0.3420   -5.1870 C.3   217  MET217      0.0401
     17  CG        77.2910    0.5680   -4.0130 C.3   217  MET217      0.0596
     18  SD        77.0290   -0.3020   -2.4670 S.3   217  MET217     -0.1393
     19  CE        76.1340    0.9030   -1.6670 C.3   217  MET217      0.0692
     20  N         76.2370   -0.3270   -7.9440 N.am  218  ASN218     -0.1974
     21  CA        75.7090    0.4160   -9.0890 C.3   218  ASN218      0.1688
     22  C         74.4250   -0.1960   -9.6410 C.2   218  ASN218      0.2292
     23  O         73.4940    0.5260   -9.9920 O.2   218  ASN218     -0.2864
     24  CB        76.7540    0.5140  -10.2090 C.3   218  ASN218      0.1181
     25  CG        77.8140    1.5670   -9.9310 C.2   218  ASN218      0.2629
     26  OD1       77.6570    2.7340  -10.2970 O.2   218  ASN218     -0.2716
     27  ND2       78.9020    1.1600   -9.2810 N.am  218  ASN218     -0.0877
     28  N         71.4380    0.3440   -7.3430 N.3   221  SER221     -0.1217
     29  CA        71.0700    1.7600   -7.3370 C.3   221  SER221      0.1889
     30  C         70.2540    2.1180   -8.5740 C.2   221  SER221      0.2288
     31  O         69.3030    2.8920   -8.4910 O.2   221  SER221     -0.2866
     32  CB        72.3200    2.6410   -7.2680 C.3   221  SER221      0.2089
     33  OG        72.9770    2.4810   -6.0250 O.3   221  SER221     -0.2183
     34  N         68.3440    8.9210   -2.9140 N.3   243  VAL243     -0.1231
     35  CA        68.4300    7.5320   -3.3670 C.3   243  VAL243      0.1692
     36  C         69.0660    6.6380   -2.2950 C.2   243  VAL243      0.2592
     37  O         68.8090    5.4350   -2.2510 O.2   243  VAL243     -0.2718
     38  CB        69.1760    7.4080   -4.7290 C.3   243  VAL243      0.0266
     39  CG1       70.6510    7.8020   -4.6110 C.3   243  VAL243      0.0020
     40  CG2       69.0280    6.0030   -5.3030 C.3   243  VAL243      0.0020
     41  N         69.8990    7.2400   -1.4470 N.am  244  SER244     -0.1952
     42  CA        70.3370    6.6170   -0.2040 C.3   244  SER244      0.1924
     43  C         69.9230    7.4850    0.9800 C.2   244  SER244      0.2314
     44  O         70.4220    8.6000    1.1430 O.2   244  SER244     -0.2863
     45  CB        71.8530    6.4410   -0.1800 C.3   244  SER244      0.2116
     46  OG        72.2780    6.0850    1.1270 O.3   244  SER244     -0.2180
     47  N         70.4720    6.3040    4.0700 N.3   246  ASN246     -0.1240
     48  CA        71.2320    5.6160    5.1280 C.3   246  ASN246      0.1653
     49  C         70.5660    4.3660    5.7180 C.2   246  ASN246      0.2266
     50  O         70.9980    3.8650    6.7550 O.2   246  ASN246     -0.2867
     51  CB        71.6240    6.5960    6.2510 C.3   246  ASN246      0.1155
     52  CG        72.8730    7.3930    5.9250 C.2   246  ASN246      0.2627
     53  OD1       73.4400    7.2710    4.8400 O.2   246  ASN246     -0.2716
     54  ND2       73.3170    8.2090    6.8780 N.am  246  ASN246     -0.0877
     55  N         70.4210    1.5150    4.0370 N.3   248  CYS248     -0.1235
     56  CA        70.9580    0.3920    3.2640 C.3   248  CYS248      0.1677
     57  C         71.5430   -0.7180    4.1490 C.2   248  CYS248      0.2270
     58  O         71.1010   -1.8530    4.0180 O.2   248  CYS248     -0.2867
     59  CB        71.9660    0.8440    2.1910 C.3   248  CYS248      0.0956
     60  SG        71.7220    2.5280    1.5710 S.3   248  CYS248     -0.0801
     61  N         75.2100    1.5560    3.9490 N.3   250  ASP250     -0.1225
     62  CA        76.5140    1.4340    3.2980 C.3   250  ASP250      0.1805
     63  C         77.5830    2.2690    4.0000 C.2   250  ASP250      0.2598
     64  O         77.4260    3.4790    4.1650 O.2   250  ASP250     -0.2718
     65  CB        76.4150    1.8680    1.8340 C.3   250  ASP250      0.1424
     66  CG        77.6880    1.5850    1.0500 C.2   250  ASP250      0.3668
     67  OD1       78.1940    0.4500    1.1220 O.co2 250  ASP250     -0.2456
     68  OD2       78.2520    2.4360    0.3290 O.co2 250  ASP250     -0.2456
     69  N         78.6650    1.6050    4.4060 N.am  251  LYS251     -0.1966
     70  CA        79.8650    2.2550    4.9500 C.3   251  LYS251      0.1728
     71  C         79.6530    3.0240    6.2620 C.2   251  LYS251      0.2616
     72  O         80.4660    3.8750    6.6310 O.2   251  LYS251     -0.2715
     73  CB        80.5180    3.1390    3.8810 C.3   251  LYS251      0.0311
     74  CG        80.9620    2.3410    2.6660 C.3   251  LYS251      0.0038
     75  CD        81.4640    3.2120    1.5360 C.3   251  LYS251      0.0206
     76  CE        81.9290    2.3460    0.3710 C.3   251  LYS251      0.1093
     77  NZ        82.3700    3.1330   -0.8070 N.3   251  LYS251     -0.1314
     78  N         78.5630    2.7100    6.9600 N.am  252  LYS252     -0.1977
     79  CA        78.3380    3.1760    8.3260 C.3   252  LYS252      0.1596
     80  C         77.8800    1.9920    9.1810 C.2   252  LYS252      0.2287
     81  O         77.1820    1.0990    8.6870 O.2   252  LYS252     -0.2864
     82  CB        77.2600    4.2590    8.3720 C.3   252  LYS252      0.0298
     83  CG        77.7060    5.6470    7.9170 C.3   252  LYS252      0.0038
     84  CD        77.5180    5.8740    6.4210 C.3   252  LYS252      0.0206
     85  CE        76.0610    5.7730    5.9840 C.3   252  LYS252      0.1093
     86  NZ        75.9210    6.0000    4.5250 N.3   252  LYS252     -0.1314
@<TRIPOS>BOND
     1    26    25    2
     2    24    25    1
     3    24    21    1
     4    23    22    2
     5    25    27   am
     6    22    21    1
     7    21    20    1
     8    30    31    2
     9    30    29    1
    10    20    14   am
    11    28    29    1
    12    29    32    1
    13    32    33    1
    14    14    15    2
    15    14    13    1
    16    12    13    1
    17    13    16    1
    18    40    38    1
    19    16    17    1
    20    38    39    1
    21    38    35    1
    22    17    18    1
    23    35    34    1
    24    35    36    1
    25    11     9    1
    26     8     9    2
    27     8     7    1
    28     6     5    1
    29     6     7    1
    30     5     2    1
    31    18    19    1
    32    36    37    2
    33    36    41   am
    34     9    10    1
    35    41    42    1
    36     2     1    1
    37     2     3    1
    38    77    76    1
    39     4     3    2
    40    42    45    1
    41    42    43    1
    42    45    46    1
    43    68    66   ar
    44    76    75    1
    45    43    44    2
    46    66    67   ar
    47    66    65    1
    48    75    74    1
    49    60    59    1
    50    65    62    1
    51    59    56    1
    52    74    73    1
    53    56    55    1
    54    56    57    1
    55    62    61    1
    56    62    63    1
    57    73    70    1
    58    63    64    2
    59    63    69   am
    60    58    57    2
    61    47    48    1
    62    69    70    1
    63    86    85    1
    64    53    52    2
    65    70    71    1
    66    48    49    1
    67    48    51    1
    68    49    50    2
    69    52    51    1
    70    52    54   am
    71    85    84    1
    72    71    72    2
    73    71    78   am
    74    84    83    1
    75    78    79    1
    76    83    82    1
    77    79    82    1
    78    79    80    1
    79    81    80    2
