@<TRIPOS>MOLECULE
tmp/2q6cA00.pdb
 118 111 0 0 0
SMALL
GASTEIGER

@<TRIPOS>ATOM
      1  N        100.9520   -4.0510    8.8400 N.3   119  GLU119     -0.1231
      2  CA       100.9300   -4.3790   10.2630 C.3   119  GLU119      0.1699
      3  C        101.7710   -5.6260   10.5060 C.2   119  GLU119      0.2593
      4  O        101.4210   -6.7180   10.0540 O.2   119  GLU119     -0.2718
      5  CB        99.4980   -4.6090   10.7580 C.3   119  GLU119      0.0402
      6  CG        99.4290   -5.1150   12.1930 C.3   119  GLU119      0.1161
      7  CD        98.1030   -4.8330   12.8760 C.2   119  GLU119      0.3649
      8  OE1       97.0450   -4.9080   12.2090 O.co2 119  GLU119     -0.2457
      9  OE2       98.1250   -4.5490   14.0930 O.co2 119  GLU119     -0.2457
     10  N        102.8770   -5.4550   11.2250 N.am  120  GLY120     -0.1942
     11  CA       103.7710   -6.5510   11.5360 C.3   120  GLY120      0.2014
     12  C        103.0780   -7.6360   12.3370 C.2   120  GLY120      0.2639
     13  O        102.3290   -7.3440   13.2660 O.2   120  GLY120     -0.2714
     14  N        103.3310   -8.8840   11.9470 N.am  121  CYS121     -0.1953
     15  CA       102.8300  -10.0950   12.6090 C.3   121  CYS121      0.1843
     16  C        101.4060  -10.5110   12.2250 C.2   121  CYS121      0.2625
     17  O        100.9380  -11.5480   12.6830 O.2   121  CYS121     -0.2714
     18  CB       102.9580  -10.0040   14.1370 C.3   121  CYS121      0.0997
     19  SG       104.6180   -9.5880   14.7130 S.3   121  CYS121     -0.0797
     20  N        100.7300   -9.7340   11.3790 N.am  122  LEU122     -0.1977
     21  CA        99.3580  -10.0560   10.9720 C.3   122  LEU122      0.1596
     22  C         99.3100  -11.2630   10.0350 C.2   122  LEU122      0.2287
     23  O         98.5190  -12.1790   10.2440 O.2   122  LEU122     -0.2864
     24  CB        98.6850   -8.8470   10.3030 C.3   122  LEU122      0.0297
     25  CG        97.2550   -9.0430    9.7770 C.3   122  LEU122      0.0022
     26  CD1       96.3460   -9.6830   10.8210 C.3   122  LEU122      0.0001
     27  CD2       96.6720   -7.7170    9.3200 C.3   122  LEU122      0.0001
     28  N        101.7500  -13.4960    9.5230 N.3   124  ALA124     -0.1231
     29  CA       102.3280  -14.6310   10.2430 C.3   124  ALA124      0.1694
     30  C        101.3420  -15.2310   11.2430 C.2   124  ALA124      0.2592
     31  O        101.2670  -16.4480   11.3860 O.2   124  ALA124     -0.2718
     32  CB       103.6130  -14.2130   10.9530 C.3   124  ALA124      0.0304
     33  N        100.5790  -14.3740   11.9170 N.am  125  SER125     -0.1952
     34  CA        99.5890  -14.8180   12.8970 C.3   125  SER125      0.1924
     35  C         98.4760  -15.5930   12.2070 C.2   125  SER125      0.2314
     36  O         98.0710  -16.6580   12.6700 O.2   125  SER125     -0.2863
     37  CB        98.9910  -13.6270   13.6520 C.3   125  SER125      0.2116
     38  OG        97.8440  -14.0120   14.3930 O.3   125  SER125     -0.2180
     39  N         99.5660  -19.0150   11.1050 N.3   128  ARG128     -0.1245
     40  CA        99.5650  -19.9700   12.2110 C.3   128  ARG128      0.1563
     41  C         98.1660  -20.5220   12.4730 C.2   128  ARG128      0.2260
     42  O         98.0150  -21.6860   12.8420 O.2   128  ARG128     -0.2867
     43  CB       100.1110  -19.3220   13.4890 C.3   128  ARG128      0.0307
     44  CG       100.3550  -20.3130   14.6220 C.3   128  ARG128      0.0489
     45  CD       101.0650  -19.7280   15.8310 C.3   128  ARG128      0.2205
     46  NE       100.1700  -18.8880   16.6260 N.pl3 128  ARG128     -0.0865
     47  CZ       100.3540  -18.5580   17.9050 C.cat 128  ARG128      0.5346
     48  NH1      101.4160  -18.9820   18.5840 N.pl3 128  ARG128      0.1354
     49  NH2       99.4610  -17.7800   18.5110 N.pl3 128  ARG128      0.1354
     50  N         86.0240  -11.7330   26.5570 N.3   295  LYS295     -0.1245
     51  CA        86.5210  -10.6740   25.6810 C.3   295  LYS295      0.1561
     52  C         85.5110  -10.4220   24.5670 C.2   295  LYS295      0.2260
     53  O         84.9410   -9.3390   24.4730 O.2   295  LYS295     -0.2867
     54  CB        87.8820  -11.0580   25.0880 C.3   295  LYS295      0.0271
     55  CG        88.3960  -10.1390   23.9840 C.3   295  LYS295      0.0035
     56  CD        89.6400  -10.7320   23.3320 C.3   295  LYS295      0.0206
     57  CE        90.0230   -9.9970   22.0680 C.3   295  LYS295      0.1093
     58  NZ        90.4950   -8.6180   22.3440 N.3   295  LYS295     -0.1314
     59  N         87.6550  -10.6390   17.8750 N.3   311  ALA311     -0.1231
     60  CA        88.9680  -10.1010   18.2280 C.3   311  ALA311      0.1694
     61  C         89.4650   -9.0630   17.2170 C.2   311  ALA311      0.2592
     62  O         89.7240   -7.9170   17.5790 O.2   311  ALA311     -0.2718
     63  CB        89.9780  -11.2310   18.3670 C.3   311  ALA311      0.0304
     64  N         89.6040   -9.4630   15.9560 N.am  312  HIS312     -0.1976
     65  CA        90.1440   -8.5770   14.9220 C.3   312  HIS312      0.1656
     66  C         89.7830   -9.0110   13.4970 C.2   312  HIS312      0.2291
     67  O         90.6260   -9.0050   12.6020 O.2   312  HIS312     -0.2864
     68  CB        91.6680   -8.4240   15.0840 C.3   312  HIS312      0.0771
     69  CG        92.4520   -9.6490   14.7210 C.ar  312  HIS312      0.0820
     70  ND1       93.5970   -9.5960   13.9560 N.ar  312  HIS312     -0.2267
     71  CD2       92.2570  -10.9570   15.0140 C.ar  312  HIS312      0.1154
     72  CE1       94.0720  -10.8180   13.7890 C.ar  312  HIS312      0.1986
     73  NE2       93.2780  -11.6620   14.4230 N.ar  312  HIS312     -0.2212
     74  N         91.0380   -6.7390   10.6720 N.3   315  ASN315     -0.1240
     75  CA        92.3990   -6.8870   10.1540 C.3   315  ASN315      0.1653
     76  C         92.4350   -7.7910    8.9260 C.2   315  ASN315      0.2266
     77  O         93.0780   -7.4650    7.9320 O.2   315  ASN315     -0.2867
     78  CB        93.3500   -7.4500   11.2230 C.3   315  ASN315      0.1155
     79  CG        93.9360   -6.3760   12.1140 C.2   315  ASN315      0.2627
     80  OD1       94.0150   -5.2060   11.7360 O.2   315  ASN315     -0.2716
     81  ND2       94.3590   -6.7700   13.3090 N.am  315  ASN315     -0.0877
     82  N         94.2990  -17.5830   16.1010 N.3   412  SER412     -0.1202
     83  CA        95.7010  -17.2990   16.3870 C.3   412  SER412      0.2020
     84  C         95.8970  -16.1470   17.3640 C.2   412  SER412      0.2618
     85  O         96.7300  -16.2340   18.2640 O.2   412  SER412     -0.2717
     86  CB        96.4490  -16.9990   15.0910 C.3   412  SER412      0.2103
     87  OG        97.8140  -16.7100   15.3470 O.3   412  SER412     -0.2182
     88  N         95.1450  -15.0630   17.1860 N.am  413  LEU413     -0.1979
     89  CA        95.2570  -13.9160   18.0850 C.3   413  LEU413      0.1596
     90  C         94.7240  -14.2560   19.4720 C.2   413  LEU413      0.2287
     91  O         95.3270  -13.8860   20.4700 O.2   413  LEU413     -0.2864
     92  CB        94.5160  -12.6930   17.5380 C.3   413  LEU413      0.0297
     93  CG        94.5830  -11.4520   18.4380 C.3   413  LEU413      0.0022
     94  CD1       96.0300  -11.0580   18.7160 C.3   413  LEU413      0.0001
     95  CD2       93.8160  -10.2900   17.8260 C.3   413  LEU413      0.0001
     96  N         97.2610  -16.1910   21.4070 N.3   416  ALA416     -0.1231
     97  CA        98.3210  -15.3210   21.9020 C.3   416  ALA416      0.1694
     98  C         97.8700  -14.5360   23.1340 C.2   416  ALA416      0.2591
     99  O         98.6720  -14.2720   24.0260 O.2   416  ALA416     -0.2718
    100  CB        98.7730  -14.3720   20.8110 C.3   416  ALA416      0.0304
    101  N         96.5880  -14.1730   23.1800 N.am  417  LEU417     -0.1980
    102  CA        96.0270  -13.4480   24.3190 C.3   417  LEU417      0.1596
    103  C         95.7720  -14.3800   25.5040 C.2   417  LEU417      0.2287
    104  O         95.8720  -13.9610   26.6550 O.2   417  LEU417     -0.2864
    105  CB        94.7220  -12.7470   23.9250 C.3   417  LEU417      0.0297
    106  CG        94.8420  -11.6260   22.8900 C.3   417  LEU417      0.0022
    107  CD1       93.4710  -11.2440   22.3490 C.3   417  LEU417      0.0001
    108  CD2       95.5400  -10.4150   23.4830 C.3   417  LEU417      0.0001
    109  N        101.2220  -13.9240   26.2350 N.3   421  HIS421     -0.1241
    110  CA       102.5010  -13.6450   25.5820 C.3   421  HIS421      0.1621
    111  C        102.7020  -12.1390   25.4390 C.2   421  HIS421      0.2264
    112  O        103.8270  -11.6610   25.2840 O.2   421  HIS421     -0.2867
    113  CB       102.5560  -14.3080   24.1980 C.3   421  HIS421      0.0745
    114  CG       102.7910  -15.7870   24.2300 C.ar  421  HIS421      0.0817
    115  ND1      103.0790  -16.4780   25.3880 N.ar  421  HIS421     -0.2268
    116  CD2      102.7830  -16.7070   23.2350 C.ar  421  HIS421      0.1154
    117  CE1      103.2370  -17.7600   25.1050 C.ar  421  HIS421      0.1986
    118  NE2      103.0630  -17.9250   23.8060 N.ar  421  HIS421     -0.2212
@<TRIPOS>BOND
     1    77    76    2
     2     1     2    1
     3    76    75    1
     4    27    25    1
     5    28    29    1
     6    25    24    1
     7    25    26    1
     8    22    23    2
     9    22    21    1
    10     4     3    2
    11    75    74    1
    12    75    78    1
    13    29    32    1
    14    29    30    1
    15     2     3    1
    16     2     5    1
    17    24    21    1
    18     3    10   am
    19     5     6    1
    20    21    20    1
    21    39    40    1
    22    78    79    1
    23    10    11    1
    24    30    31    2
    25    30    33   am
    26    20    16   am
    27    11    12    1
    28    80    79    2
    29    33    34    1
    30    14    12   am
    31    14    15    1
    32    79    81   am
    33     6     7    1
    34    35    36    2
    35    35    34    1
    36     8     7   ar
    37    40    41    1
    38    40    43    1
    39    16    15    1
    40    16    17    2
    41    12    13    2
    42    41    42    2
    43    67    66    2
    44    15    18    1
    45     7     9   ar
    46    34    37    1
    47    43    44    1
    48    66    65    1
    49    37    38    1
    50    72    70   ar
    51    72    73   ar
    52    70    69   ar
    53    18    19    1
    54    73    71   ar
    55    44    45    1
    56    69    71   ar
    57    69    68    1
    58    65    68    1
    59    65    64    1
    60    86    87    1
    61    86    83    1
    62    45    46    1
    63    64    61   am
    64    82    83    1
    65    83    84    1
    66    46    47    2
    67    88    84   am
    68    88    89    1
    69    61    62    2
    70    61    60    1
    71    84    85    2
    72    92    89    1
    73    92    93    1
    74    95    93    1
    75    59    60    1
    76    47    49    1
    77    47    48    1
    78    89    90    1
    79    60    63    1
    80    93    94    1
    81    90    91    2
    82   100    97    1
    83    96    97    1
    84    97    98    1
    85    57    58    1
    86    57    56    1
    87   107   106    1
    88   106   108    1
    89   106   105    1
    90    98   101   am
    91    98    99    2
    92   101   102    1
    93   116   118   ar
    94   116   114   ar
    95    56    55    1
    96   118   117   ar
    97   105   102    1
    98    55    54    1
    99   113   114    1
   100   113   110    1
   101   114   115   ar
   102   102   103    1
   103    53    52    2
   104    52    51    1
   105    54    51    1
   106   117   115   ar
   107   112   111    2
   108   111   110    1
   109   103   104    2
   110   110   109    1
   111    51    50    1
