@<TRIPOS>MOLECULE
tmp/2q6fB00.pdb
 215 214 0 0 0
SMALL
GASTEIGER

@<TRIPOS>ATOM
      1  N         27.7000  -67.5250   24.6920 N.3    24  GLY24      -0.1210
      2  CA        28.1940  -66.3140   24.0650 C.3    24  GLY24       0.1956
      3  C         27.6020  -66.0930   22.6890 C.2    24  GLY24       0.2612
      4  O         27.9330  -65.1210   22.0080 O.2    24  GLY24      -0.2717
      5  N         26.7290  -67.0010   22.2690 N.am   25  ASN25      -0.1960
      6  CA        26.0920  -66.8810   20.9650 C.3    25  ASN25       0.1819
      7  C         24.7790  -66.1320   21.1420 C.2    25  ASN25       0.2621
      8  O         23.9250  -66.5470   21.9310 O.2    25  ASN25      -0.2715
      9  CB        25.8380  -68.2650   20.3770 C.3    25  ASN25       0.1195
     10  CG        27.0790  -69.1340   20.3920 C.2    25  ASN25       0.2630
     11  OD1       28.2030  -68.6310   20.3000 O.2    25  ASN25      -0.2716
     12  ND2       26.8850  -70.4480   20.4940 N.am   25  ASN25      -0.0877
     13  N         24.6160  -65.0320   20.4110 N.am   26  ASN26      -0.1958
     14  CA        23.4050  -64.2320   20.5370 C.3    26  ASN26       0.1819
     15  C         22.6250  -63.9230   19.2720 C.2    26  ASN26       0.2621
     16  O         23.1900  -63.5240   18.2540 O.2    26  ASN26      -0.2715
     17  CB        23.7230  -62.9130   21.2380 C.3    26  ASN26       0.1195
     18  CG        23.6440  -63.0270   22.7420 C.2    26  ASN26       0.2630
     19  OD1       24.4290  -63.7420   23.3640 O.2    26  ASN26      -0.2716
     20  ND2       22.6820  -62.3300   23.3380 N.am   26  ASN26      -0.0877
     21  N         21.3120  -64.1060   19.3600 N.am   27  LEU27      -0.1977
     22  CA        20.4160  -63.8150   18.2530 C.3    27  LEU27       0.1596
     23  C         18.9740  -63.6910   18.7270 C.2    27  LEU27       0.2287
     24  O         18.7170  -63.6400   19.9270 O.2    27  LEU27      -0.2864
     25  CB        20.5570  -64.8590   17.1480 C.3    27  LEU27       0.0297
     26  CG        20.5510  -66.3490   17.4570 C.3    27  LEU27       0.0022
     27  CD1       19.2640  -66.7610   18.1440 C.3    27  LEU27       0.0001
     28  CD2       20.7380  -67.0840   16.1330 C.3    27  LEU27       0.0001
     29  N         21.6960  -72.6800   14.2650 N.3    41  HIS41      -0.1226
     30  CA        23.1180  -72.3320   14.2880 C.3    41  HIS41       0.1752
     31  C         23.5350  -71.5100   15.5060 C.2    41  HIS41       0.2595
     32  O         24.6710  -71.0340   15.5800 O.2    41  HIS41      -0.2718
     33  CB        23.5360  -71.6070   13.0000 C.3    41  HIS41       0.0759
     34  CG        23.0390  -70.2000   12.8950 C.ar   41  HIS41       0.0818
     35  ND1       22.2760  -69.7610   11.8340 N.ar   41  HIS41      -0.2268
     36  CD2       23.2290  -69.1210   13.6920 C.ar   41  HIS41       0.1154
     37  CE1       22.0180  -68.4740   11.9820 C.ar   41  HIS41       0.1986
     38  NE2       22.5860  -68.0620   13.1020 N.ar   41  HIS41      -0.2212
     39  N         22.6150  -71.3430   16.4520 N.am   42  VAL42      -0.1980
     40  CA        22.9050  -70.6180   17.6900 C.3    42  VAL42       0.1595
     41  C         23.7840  -71.5410   18.5290 C.2    42  VAL42       0.2287
     42  O         24.3120  -71.1500   19.5720 O.2    42  VAL42      -0.2864
     43  CB        21.6310  -70.3450   18.5060 C.3    42  VAL42       0.0276
     44  CG1       21.9470  -69.4320   19.6890 C.3    42  VAL42       0.0022
     45  CG2       20.5760  -69.7450   17.6230 C.3    42  VAL42       0.0022
     46  N         26.3200  -73.2610   16.9960 N.3    44  GLY44      -0.1210
     47  CA        27.6370  -73.2040   16.3860 C.3    44  GLY44       0.1956
     48  C         27.5590  -73.5270   14.9060 C.2    44  GLY44       0.2611
     49  O         26.4660  -73.7100   14.3720 O.2    44  GLY44      -0.2717
     50  N         28.7050  -73.6120   14.2400 N.am   45  LYS45      -0.1979
     51  CA        28.7350  -73.9060   12.8080 C.3    45  LYS45       0.1596
     52  C         28.9390  -75.3850   12.5040 C.2    45  LYS45       0.2287
     53  O         30.0670  -75.8740   12.5260 O.2    45  LYS45      -0.2864
     54  CB        29.8450  -73.0990   12.1280 C.3    45  LYS45       0.0298
     55  CG        29.6950  -71.5960   12.2750 C.3    45  LYS45       0.0038
     56  CD        30.8100  -70.8490   11.5600 C.3    45  LYS45       0.0206
     57  CE        30.6220  -69.3400   11.6990 C.3    45  LYS45       0.1093
     58  NZ        31.6830  -68.5590   11.0020 N.3    45  LYS45      -0.1314
     59  N         24.0650  -81.7210   13.8100 N.3    51  TRP51      -0.1241
     60  CA        23.0530  -81.0820   14.6480 C.3    51  TRP51       0.1605
     61  C         22.3050  -82.2660   15.2630 C.2    51  TRP51       0.2264
     62  O         22.3370  -83.3620   14.7120 O.2    51  TRP51      -0.2867
     63  CB        22.0730  -80.2390   13.8120 C.3    51  TRP51       0.0550
     64  CG        22.7090  -79.2750   12.8480 C.ar   51  TRP51       0.0003
     65  CD1       22.8850  -79.4530   11.5050 C.ar   51  TRP51       0.0946
     66  CD2       23.2510  -77.9870   13.1530 C.ar   51  TRP51       0.0152
     67  NE1       23.4990  -78.3550   10.9530 N.ar   51  TRP51      -0.2442
     68  CE2       23.7350  -77.4340   11.9480 C.ar   51  TRP51       0.0810
     69  CE3       23.3710  -77.2360   14.3320 C.ar   51  TRP51       0.0012
     70  CZ2       24.3350  -76.1720   11.8790 C.ar   51  TRP51       0.0191
     71  CZ3       23.9650  -75.9810   14.2690 C.ar   51  TRP51       0.0001
     72  CH2       24.4390  -75.4620   13.0480 C.ar   51  TRP51       0.0015
     73  N         20.2390  -56.9000    6.6870 N.3   138  PHE138     -0.1227
     74  CA        20.5830  -57.5360    7.9560 C.3   138  PHE138      0.1736
     75  C         22.0700  -57.4280    8.2630 C.2   138  PHE138      0.2595
     76  O         22.9050  -57.5590    7.3690 O.2   138  PHE138     -0.2718
     77  CB        20.2420  -59.0320    7.9310 C.3   138  PHE138      0.0547
     78  CG        18.7770  -59.3430    7.8280 C.ar  138  PHE138     -0.0202
     79  CD1       18.2880  -60.0820    6.7510 C.ar  138  PHE138     -0.0042
     80  CD2       17.8980  -58.9770    8.8390 C.ar  138  PHE138     -0.0042
     81  CE1       16.9520  -60.4600    6.6940 C.ar  138  PHE138     -0.0003
     82  CE2       16.5540  -59.3520    8.7860 C.ar  138  PHE138     -0.0003
     83  CZ        16.0870  -60.0920    7.7160 C.ar  138  PHE138     -0.0000
     84  N         22.3920  -57.1980    9.5300 N.am  139  LEU139     -0.1966
     85  CA        23.7820  -57.1280    9.9680 C.3   139  LEU139      0.1728
     86  C         23.9880  -58.2480   10.9930 C.2   139  LEU139      0.2616
     87  O         23.0430  -58.9680   11.3370 O.2   139  LEU139     -0.2715
     88  CB        24.0860  -55.7690   10.6100 C.3   139  LEU139      0.0311
     89  CG        23.9490  -54.5230    9.7230 C.3   139  LEU139      0.0022
     90  CD1       24.3340  -53.2940   10.5390 C.3   139  LEU139      0.0001
     91  CD2       24.8360  -54.6350    8.4910 C.3   139  LEU139      0.0001
     92  N         25.2150  -58.4010   11.4790 N.am  140  ALA140     -0.1963
     93  CA        25.5050  -59.4380   12.4600 C.3   140  ALA140      0.1728
     94  C         24.5530  -59.3120   13.6480 C.2   140  ALA140      0.2616
     95  O         24.2890  -58.2120   14.1230 O.2   140  ALA140     -0.2715
     96  CB        26.9530  -59.3230   12.9300 C.3   140  ALA140      0.0334
     97  N         24.0290  -60.4420   14.1170 N.am  141  GLY141     -0.1955
     98  CA        23.1230  -60.4130   15.2480 C.3   141  GLY141      0.1869
     99  C         21.6470  -60.3230   14.8860 C.2   141  GLY141      0.2309
    100  O         20.7830  -60.3730   15.7650 O.2   141  GLY141     -0.2863
    101  N         20.0750  -62.5250   13.0460 N.3   143  CYS143     -0.1235
    102  CA        19.5070  -63.8540   12.7900 C.3   143  CYS143      0.1677
    103  C         18.3260  -64.1170   13.6970 C.2   143  CYS143      0.2270
    104  O         18.2820  -63.6820   14.8570 O.2   143  CYS143     -0.2867
    105  CB        20.5840  -64.9700   12.8180 C.3   143  CYS143      0.0956
    106  SG        21.3630  -65.1470   11.2280 S.3   143  CYS143     -0.0801
    107  N         15.0990  -65.3930    9.6490 N.3   161  HIS161     -0.1226
    108  CA        16.3770  -65.1440    9.0000 C.3   161  HIS161      0.1752
    109  C         17.5290  -66.0060    9.4880 C.2   161  HIS161      0.2596
    110  O         17.7610  -66.1160   10.6950 O.2   161  HIS161     -0.2718
    111  CB        16.7620  -63.6680    9.1230 C.3   161  HIS161      0.0759
    112  CG        17.9840  -63.3160    8.3430 C.ar  161  HIS161      0.0818
    113  ND1       18.1000  -63.5790    6.9920 N.ar  161  HIS161     -0.2268
    114  CD2       19.1700  -62.7890    8.7240 C.ar  161  HIS161      0.1154
    115  CE1       19.3050  -63.2370    6.5810 C.ar  161  HIS161      0.1986
    116  NE2       19.9760  -62.7550    7.6140 N.ar  161  HIS161     -0.2212
    117  N         18.2620  -66.5900    8.5370 N.am  162  HIS162     -0.1961
    118  CA        19.4020  -67.4630    8.8530 C.3   162  HIS162      0.1787
    119  C         20.7500  -67.0170    8.3070 C.2   162  HIS162      0.2620
    120  O         21.7260  -66.9630    9.0500 O.2   162  HIS162     -0.2715
    121  CB        19.1550  -68.8880    8.3410 C.3   162  HIS162      0.0785
    122  CG        18.1810  -69.6660    9.1600 C.ar  162  HIS162      0.0821
    123  ND1       18.5660  -70.6980    9.9960 N.ar  162  HIS162     -0.2267
    124  CD2       16.8370  -69.5720    9.2830 C.ar  162  HIS162      0.1154
    125  CE1       17.5030  -71.1990   10.5890 C.ar  162  HIS162      0.1986
    126  NE2       16.4350  -70.5330   10.1740 N.ar  162  HIS162     -0.2212
    127  N         20.8230  -66.7170    7.0140 N.am  163  LEU163     -0.1963
    128  CA        22.1080  -66.3340    6.4510 C.3   163  LEU163      0.1728
    129  C         22.1090  -65.3900    5.2540 C.2   163  LEU163      0.2616
    130  O         21.0810  -65.1420    4.6260 O.2   163  LEU163     -0.2715
    131  CB        22.8960  -67.6010    6.0940 C.3   163  LEU163      0.0311
    132  CG        22.3760  -68.4290    4.9160 C.3   163  LEU163      0.0022
    133  CD1       22.9210  -67.8580    3.6160 C.3   163  LEU163      0.0001
    134  CD2       22.8240  -69.8670    5.0630 C.3   163  LEU163      0.0001
    135  N         23.3000  -64.8800    4.9520 N.am  164  GLU164     -0.1963
    136  CA        23.5140  -63.9690    3.8400 C.3   164  GLU164      0.1733
    137  C         24.2860  -64.6610    2.7290 C.2   164  GLU164      0.2616
    138  O         25.3220  -65.2730    2.9660 O.2   164  GLU164     -0.2715
    139  CB        24.2960  -62.7410    4.3130 C.3   164  GLU164      0.0429
    140  CG        24.6650  -61.7580    3.2070 C.3   164  GLU164      0.1163
    141  CD        25.4260  -60.5460    3.7330 C.2   164  GLU164      0.3649
    142  OE1       24.8130  -59.7040    4.4300 O.co2 164  GLU164     -0.2457
    143  OE2       26.6410  -60.4430    3.4550 O.co2 164  GLU164     -0.2457
    144  N         23.7690  -64.5670    1.5130 N.am  165  LEU165     -0.1964
    145  CA        24.4140  -65.1580    0.3530 C.3   165  LEU165      0.1713
    146  C         25.0900  -64.0230   -0.4200 C.2   165  LEU165      0.2458
    147  O         24.6700  -62.8670   -0.3310 O.2   165  LEU165     -0.2730
    148  CB        23.3660  -65.8500   -0.5200 C.3   165  LEU165      0.0310
    149  CG        22.6880  -67.0610    0.1270 C.3   165  LEU165      0.0022
    150  CD1       21.3190  -67.3020   -0.5000 C.3   165  LEU165      0.0001
    151  CD2       23.5910  -68.2700   -0.0190 C.3   165  LEU165      0.0001
    152  N         26.1420  -64.3350   -1.1910 N.am  166  PRO166     -0.2727
    153  CA        26.8320  -63.2880   -1.9520 C.3   166  PRO166      0.1402
    154  C         25.8800  -62.3170   -2.6620 C.2   166  PRO166      0.2269
    155  O         24.7760  -62.6950   -3.0660 O.2   166  PRO166     -0.2865
    156  CB        27.6830  -64.0880   -2.9330 C.3   166  PRO166      0.0296
    157  CG        28.0270  -65.3190   -2.1360 C.3   166  PRO166      0.0237
    158  CD        26.6980  -65.6660   -1.5030 C.3   166  PRO166      0.0939
    159  N         19.6020  -62.5100    1.0640 N.3   170  HIS170     -0.1241
    160  CA        19.3280  -63.1600    2.3330 C.3   170  HIS170      0.1621
    161  C         18.3410  -64.3080    2.1810 C.2   170  HIS170      0.2264
    162  O         17.5090  -64.3160    1.2750 O.2   170  HIS170     -0.2867
    163  CB        18.7910  -62.1340    3.3330 C.3   170  HIS170      0.0745
    164  CG        19.6530  -60.9210    3.4590 C.ar  170  HIS170      0.0817
    165  ND1       19.5430  -59.8340    2.6150 N.ar  170  HIS170     -0.2268
    166  CD2       20.6900  -60.6480    4.2860 C.ar  170  HIS170      0.1154
    167  CE1       20.4740  -58.9490    2.9170 C.ar  170  HIS170      0.1986
    168  NE2       21.1850  -59.4200    3.9280 N.ar  170  HIS170     -0.2212
    169  N         22.1630  -73.9980    6.1490 N.3   185  ASP185     -0.1225
    170  CA        22.7700  -73.1000    7.1170 C.3   185  ASP185      0.1805
    171  C         24.2560  -73.4090    7.2980 C.2   185  ASP185      0.2598
    172  O         24.7000  -73.7740    8.3810 O.2   185  ASP185     -0.2718
    173  CB        22.0280  -73.1990    8.4560 C.3   185  ASP185      0.1424
    174  CG        21.8800  -74.6340    8.9450 C.2   185  ASP185      0.3668
    175  OD1       22.1060  -75.5760    8.1500 O.co2 185  ASP185     -0.2456
    176  OD2       21.5260  -74.8180   10.1260 O.co2 185  ASP185     -0.2456
    177  N         25.0130  -73.2600    6.2140 N.am  186  GLU186     -0.1965
    178  CA        26.4510  -73.5060    6.2210 C.3   186  GLU186      0.1733
    179  C         27.1860  -72.4950    5.3620 C.2   186  GLU186      0.2616
    180  O         26.7560  -72.1750    4.2530 O.2   186  GLU186     -0.2715
    181  CB        26.7610  -74.9050    5.7020 C.3   186  GLU186      0.0429
    182  CG        26.5880  -76.0040    6.7230 C.3   186  GLU186      0.1163
    183  CD        26.6280  -77.3700    6.0830 C.2   186  GLU186      0.3649
    184  OE1       27.4650  -77.5670    5.1780 O.co2 186  GLU186     -0.2457
    185  OE2       25.8320  -78.2440    6.4890 O.co2 186  GLU186     -0.2457
    186  N         28.3150  -72.0210    5.8780 N.am  187  GLU187     -0.1963
    187  CA        29.1390  -71.0410    5.1870 C.3   187  GLU187      0.1733
    188  C         29.9940  -71.6950    4.1150 C.2   187  GLU187      0.2616
    189  O         31.1730  -71.9760    4.3260 O.2   187  GLU187     -0.2715
    190  CB        30.0150  -70.3180    6.2070 C.3   187  GLU187      0.0429
    191  CG        29.1910  -69.7080    7.3250 C.3   187  GLU187      0.1163
    192  CD        29.9650  -68.7270    8.1710 C.2   187  GLU187      0.3649
    193  OE1       29.3190  -67.8440    8.7750 O.co2 187  GLU187     -0.2457
    194  OE2       31.2100  -68.8420    8.2360 O.co2 187  GLU187     -0.2457
    195  N         29.3830  -71.9320    2.9600 N.am  188  VAL188     -0.1963
    196  CA        30.0600  -72.5640    1.8360 C.3   188  VAL188      0.1727
    197  C         29.4210  -72.0930    0.5400 C.2   188  VAL188      0.2616
    198  O         28.2690  -71.6650    0.5310 O.2   188  VAL188     -0.2715
    199  CB        29.9270  -74.1010    1.8930 C.3   188  VAL188      0.0290
    200  CG1       30.7520  -74.7360    0.7800 C.3   188  VAL188      0.0023
    201  CG2       30.3580  -74.6150    3.2570 C.3   188  VAL188      0.0023
    202  N         30.1670  -72.1730   -0.5550 N.am  189  ALA189     -0.1963
    203  CA        29.6430  -71.7610   -1.8490 C.3   189  ALA189      0.1728
    204  C         28.3640  -72.5420   -2.1560 C.2   189  ALA189      0.2616
    205  O         28.3590  -73.7730   -2.1320 O.2   189  ALA189     -0.2715
    206  CB        30.6840  -72.0040   -2.9320 C.3   189  ALA189      0.0334
    207  N         27.2820  -71.8180   -2.4310 N.am  190  GLN190     -0.1977
    208  CA        25.9950  -72.4290   -2.7510 C.3   190  GLN190      0.1601
    209  C         25.4030  -71.7610   -3.9870 C.2   190  GLN190      0.2287
    210  O         25.2210  -70.5430   -4.0150 O.2   190  GLN190     -0.2864
    211  CB        25.0290  -72.2820   -1.5720 C.3   190  GLN190      0.0394
    212  CG        25.4890  -72.9950   -0.3130 C.3   190  GLN190      0.0908
    213  CD        24.5240  -72.8380    0.8460 C.2   190  GLN190      0.2608
    214  OE1       23.3350  -73.1740    0.7390 O.2   190  GLN190     -0.2717
    215  NE2       25.0290  -72.3340    1.9690 N.am  190  GLN190     -0.0878
@<TRIPOS>BOND
     1   210   209    2
     2   209   208    1
     3   155   154    2
     4   156   157    1
     5   156   153    1
     6   206   203    1
     7   208   207    1
     8   208   211    1
     9   154   153    1
    10   207   204   am
    11   204   205    2
    12   204   203    1
    13   157   158    1
    14   153   152    1
    15   203   202    1
    16   211   212    1
    17   158   152    1
    18   152   146   am
    19   202   197   am
    20   148   149    1
    21   148   145    1
    22   150   149    1
    23   146   147    2
    24   146   145    1
    25   212   213    1
    26   151   149    1
    27   145   144    1
    28   198   197    2
    29   197   196    1
    30   214   213    2
    31   200   199    1
    32   213   215   am
    33   159   160    1
    34   162   161    2
    35   144   137   am
    36   196   199    1
    37   196   195    1
    38   199   201    1
    39   161   160    1
    40   160   163    1
    41   165   167   ar
    42   165   164   ar
    43   137   138    2
    44   137   136    1
    45   167   168   ar
    46   195   188   am
    47   140   141    1
    48   140   139    1
    49   163   164    1
    50   143   141   ar
    51   164   166   ar
    52   133   132    1
    53   141   142   ar
    54   136   139    1
    55   136   135    1
    56   168   166   ar
    57   188   189    2
    58   188   187    1
    59   180   179    2
    60   130   129    2
    61   132   134    1
    62   132   131    1
    63   135   129   am
    64   184   183   ar
    65   187   186    1
    66   187   190    1
    67   129   128    1
    68   179   186   am
    69   179   178    1
    70   181   178    1
    71   181   182    1
    72   183   185   ar
    73   183   182    1
    74   131   128    1
    75   169   170    1
    76   190   191    1
    77   177   178    1
    78   177   171   am
    79   128   127    1
    80   115   113   ar
    81   115   116   ar
    82    73    74    1
    83    81    79   ar
    84    81    83   ar
    85    79    78   ar
    86   113   112   ar
    87   127   119   am
    88   170   171    1
    89   170   173    1
    90   171   172    2
    91   191   192    1
    92    76    75    2
    93   116   114   ar
    94    83    82   ar
    95    78    77    1
    96    78    80   ar
    97    77    74    1
    98    74    75    1
    99   175   174   ar
   100   192   194   ar
   101   192   193   ar
   102    75    84   am
   103   119   118    1
   104   119   120    2
   105   121   118    1
   106   121   122    1
   107   112   114   ar
   108   112   111    1
   109   173   174    1
   110    91    89    1
   111   117   118    1
   112   117   109   am
   113    82    80   ar
   114   174   176   ar
   115   108   111    1
   116   108   109    1
   117   108   107    1
   118   122   124   ar
   119   122   123   ar
   120   124   126   ar
   121   109   110    2
   122    84    85    1
   123    89    90    1
   124    89    88    1
   125    85    88    1
   126    85    86    1
   127   123   125   ar
   128   126   125   ar
   129    67    65   ar
   130    67    68   ar
   131    86    87    2
   132    86    92   am
   133    58    57    1
   134   106   105    1
   135    92    93    1
   136    65    64   ar
   137    56    57    1
   138    56    55    1
   139    35    37   ar
   140    35    34   ar
   141    70    68   ar
   142    70    72   ar
   143    68    66   ar
   144    37    38   ar
   145    54    55    1
   146    54    51    1
   147    93    96    1
   148    93    94    1
   149    52    53    2
   150    52    51    1
   151   102   105    1
   152   102   101    1
   153   102   103    1
   154    51    50    1
   155    64    66   ar
   156    64    63    1
   157    34    33    1
   158    34    36   ar
   159    33    30    1
   160    72    71   ar
   161    38    36   ar
   162    66    69   ar
   163    94    97   am
   164    94    95    2
   165   103   104    2
   166    59    60    1
   167    63    60    1
   168    97    98    1
   169    50    48   am
   170    29    30    1
   171    71    69   ar
   172    30    31    1
   173    49    48    2
   174    60    61    1
   175    62    61    2
   176    99    98    1
   177    99   100    2
   178    48    47    1
   179    31    32    2
   180    31    39   am
   181    28    26    1
   182    47    46    1
   183    39    40    1
   184    25    26    1
   185    25    22    1
   186    26    27    1
   187    45    43    1
   188    40    43    1
   189    40    41    1
   190    22    23    1
   191    22    21    1
   192    16    15    2
   193    43    44    1
   194    41    42    2
   195    23    24    2
   196    15    21   am
   197    15    14    1
   198    11    10    2
   199     9    10    1
   200     9     6    1
   201    10    12   am
   202    13    14    1
   203    13     7   am
   204    14    17    1
   205     6     7    1
   206     6     5    1
   207     7     8    2
   208    17    18    1
   209     4     3    2
   210     5     3   am
   211     3     2    1
   212    18    20   am
   213    18    19    2
   214     2     1    1
