@<TRIPOS>MOLECULE
tmp/2q6gB00.pdb
 216 213 0 0 0
SMALL
GASTEIGER

@<TRIPOS>ATOM
      1  N         81.6280  -23.2960   53.3260 N.3    24  THR24      -0.1203
      2  CA        82.9280  -23.5780   52.7290 C.3    24  THR24       0.1994
      3  C         82.8760  -23.4920   51.1970 C.2    24  THR24       0.2619
      4  O         83.9150  -23.5220   50.5280 O.2    24  THR24      -0.2717
      5  CB        83.4310  -24.9830   53.1410 C.3    24  THR24       0.1784
      6  OG1       84.7970  -25.1340   52.7410 O.3    24  THR24      -0.2211
      7  CG2       82.5970  -26.0750   52.4760 C.3    24  THR24       0.0376
      8  N         81.6640  -23.3760   50.6530 N.am   25  THR25      -0.1938
      9  CA        81.4650  -23.3020   49.2040 C.3    25  THR25       0.2028
     10  C         81.6770  -21.8870   48.6610 C.2    25  THR25       0.2643
     11  O         81.1400  -20.9250   49.2040 O.2    25  THR25      -0.2714
     12  CB        80.0300  -23.7610   48.8060 C.3    25  THR25       0.1808
     13  OG1       79.7160  -25.0000   49.4570 O.3    25  THR25      -0.2208
     14  CG2       79.9350  -23.9580   47.3050 C.3    25  THR25       0.0379
     15  N         82.4550  -21.7710   47.5860 N.am   26  THR26      -0.1936
     16  CA        82.7310  -20.4780   46.9580 C.3    26  THR26       0.2028
     17  C         82.5830  -20.5500   45.4330 C.2    26  THR26       0.2642
     18  O         82.7750  -21.6000   44.8280 O.2    26  THR26      -0.2714
     19  CB        84.1550  -19.9920   47.2910 C.3    26  THR26       0.1808
     20  OG1       84.2790  -19.8360   48.7070 O.3    26  THR26      -0.2208
     21  CG2       84.4390  -18.6600   46.6280 C.3    26  THR26       0.0379
     22  N         82.2400  -19.4210   44.8260 N.am   27  LEU27      -0.1977
     23  CA        82.0690  -19.3310   43.3820 C.3    27  LEU27       0.1596
     24  C         81.9060  -17.8650   42.9850 C.2    27  LEU27       0.2287
     25  O         82.0010  -16.9780   43.8360 O.2    27  LEU27      -0.2864
     26  CB        80.8590  -20.1560   42.9450 C.3    27  LEU27       0.0297
     27  CG        79.5940  -20.0460   43.7950 C.3    27  LEU27       0.0022
     28  CD1       79.0730  -18.6080   43.8030 C.3    27  LEU27       0.0001
     29  CD2       78.5440  -20.9920   43.2390 C.3    27  LEU27       0.0001
     30  N         73.4300  -22.3880   44.2750 N.3    41  ALA41      -0.1245
     31  CA        74.1650  -23.5770   44.7010 C.3    41  ALA41       0.1562
     32  C         75.1930  -23.2510   45.7740 C.2    41  ALA41       0.2260
     33  O         75.5930  -24.1260   46.5390 O.2    41  ALA41      -0.2867
     34  CB        74.8670  -24.2320   43.5110 C.3    41  ALA41       0.0290
     35  N         74.2430  -31.2370   47.7360 N.3    49  MET49      -0.1245
     36  CA        74.2240  -31.3080   46.2740 C.3    49  MET49       0.1570
     37  C         73.5050  -32.4920   45.6380 C.2    49  MET49       0.2261
     38  O         73.0550  -32.4090   44.4920 O.2    49  MET49      -0.2867
     39  CB        75.6560  -31.2590   45.7290 C.3    49  MET49       0.0387
     40  CG        76.2800  -29.8730   45.7330 C.3    49  MET49       0.0595
     41  SD        75.2150  -28.6580   44.9260 S.3    49  MET49      -0.1393
     42  CE        74.6380  -29.6000   43.5080 C.3    49  MET49       0.0692
     43  N         66.4490  -26.1510   48.3510 N.3    54  TYR54      -0.1241
     44  CA        66.7740  -24.7340   48.4200 C.3    54  TYR54       0.1605
     45  C         65.9310  -23.8550   49.3540 C.2    54  TYR54       0.2264
     46  O         66.4560  -22.9330   49.9730 O.2    54  TYR54      -0.2867
     47  CB        66.8180  -24.1650   46.9980 C.3    54  TYR54       0.0534
     48  CG        67.9910  -24.7260   46.2190 C.ar   54  TYR54      -0.0201
     49  CD1       67.8120  -25.7000   45.2340 C.ar   54  TYR54      -0.0009
     50  CD2       69.2930  -24.3230   46.5130 C.ar   54  TYR54      -0.0009
     51  CE1       68.9050  -26.2590   44.5630 C.ar   54  TYR54       0.0417
     52  CE2       70.3900  -24.8750   45.8530 C.ar   54  TYR54       0.0417
     53  CZ        70.1940  -25.8410   44.8820 C.ar   54  TYR54       0.1957
     54  OH        71.2920  -26.3850   44.2460 O.3    54  TYR54      -0.2866
     55  N         87.2380  -17.7640   41.7810 N.3   119  ASN119     -0.1240
     56  CA        87.3500  -16.9600   42.9910 C.3   119  ASN119      0.1653
     57  C         87.0870  -15.4930   42.7130 C.2   119  ASN119      0.2266
     58  O         87.7000  -14.6090   43.3110 O.2   119  ASN119     -0.2867
     59  CB        88.7160  -17.1480   43.6390 C.3   119  ASN119      0.1155
     60  CG        88.9660  -18.5910   44.0230 C.2   119  ASN119      0.2627
     61  OD1       89.5860  -19.3480   43.2750 O.2   119  ASN119     -0.2716
     62  ND2       88.4570  -18.9910   45.1830 N.am  119  ASN119     -0.0877
     63  N         84.9980  -24.7100   30.6960 N.3   140  PHE140     -0.1227
     64  CA        84.6710  -24.4350   32.0840 C.3   140  PHE140      0.1736
     65  C         85.2480  -25.3920   33.1090 C.2   140  PHE140      0.2595
     66  O         84.7500  -26.5050   33.2690 O.2   140  PHE140     -0.2718
     67  CB        83.1540  -24.4150   32.2590 C.3   140  PHE140      0.0547
     68  CG        82.5350  -23.0810   32.0200 C.ar  140  PHE140     -0.0202
     69  CD1       81.4240  -22.9580   31.2000 C.ar  140  PHE140     -0.0042
     70  CD2       83.0370  -21.9460   32.6440 C.ar  140  PHE140     -0.0042
     71  CE1       80.8160  -21.7250   31.0050 C.ar  140  PHE140     -0.0003
     72  CE2       82.4340  -20.7060   32.4550 C.ar  140  PHE140     -0.0003
     73  CZ        81.3230  -20.5970   31.6360 C.ar  140  PHE140     -0.0000
     74  N         86.2950  -24.9710   33.8100 N.am  141  LEU141     -0.1966
     75  CA        86.8380  -25.8260   34.8540 C.3   141  LEU141      0.1728
     76  C         85.7960  -25.7310   35.9430 C.2   141  LEU141      0.2616
     77  O         84.7300  -25.1520   35.7380 O.2   141  LEU141     -0.2715
     78  CB        88.1710  -25.3040   35.3930 C.3   141  LEU141      0.0311
     79  CG        89.4530  -25.7140   34.6640 C.3   141  LEU141      0.0022
     80  CD1       90.6490  -25.0490   35.3300 C.3   141  LEU141      0.0001
     81  CD2       89.6050  -27.2300   34.6960 C.3   141  LEU141      0.0001
     82  N         86.0930  -26.2900   37.1030 N.am  142  ASN142     -0.1958
     83  CA        85.1360  -26.2160   38.1840 C.3   142  ASN142      0.1819
     84  C         85.5460  -25.0840   39.1180 C.2   142  ASN142      0.2622
     85  O         86.7340  -24.8490   39.3670 O.2   142  ASN142     -0.2715
     86  CB        85.0280  -27.5670   38.9080 C.3   142  ASN142      0.1195
     87  CG        85.6860  -27.5670   40.2710 C.2   142  ASN142      0.2630
     88  OD1       86.9070  -27.4900   40.3880 O.2   142  ASN142     -0.2716
     89  ND2       84.8700  -27.6730   41.3160 N.am  142  ASN142     -0.0877
     90  N         84.5430  -24.3780   39.6200 N.am  143  GLY143     -0.1940
     91  CA        84.7850  -23.2360   40.4750 C.3   143  GLY143      0.2014
     92  C         84.4660  -22.0780   39.5540 C.2   143  GLY143      0.2640
     93  O         84.5080  -20.9090   39.9310 O.2   143  GLY143     -0.2714
     94  N         84.1460  -22.4230   38.3140 N.am  144  SER144     -0.1935
     95  CA        83.8010  -21.4210   37.3290 C.3   144  SER144      0.2055
     96  C         82.3340  -21.0630   37.5120 C.2   144  SER144      0.2643
     97  O         81.8220  -20.1740   36.8430 O.2   144  SER144     -0.2714
     98  CB        84.0360  -21.9610   35.9200 C.3   144  SER144      0.2130
     99  OG        83.2520  -23.1210   35.6990 O.3   144  SER144     -0.2179
    100  N         81.6640  -21.7640   38.4220 N.am  145  CYS145     -0.1967
    101  CA        80.2570  -21.5110   38.6940 C.3   145  CYS145      0.1712
    102  C         80.1060  -20.0160   38.9690 C.2   145  CYS145      0.2296
    103  O         80.8350  -19.4500   39.7860 O.2   145  CYS145     -0.2864
    104  CB        79.8010  -22.3380   39.9090 C.3   145  CYS145      0.0983
    105  SG        78.0170  -22.4000   40.2130 S.3   145  CYS145     -0.0798
    106  N         76.8820  -19.4110   34.2680 N.3   163  HIS163     -0.1226
    107  CA        77.2680  -20.8080   34.3690 C.3   163  HIS163      0.1752
    108  C         76.8660  -21.4780   35.6760 C.2   163  HIS163      0.2596
    109  O         76.9300  -20.8830   36.7540 O.2   163  HIS163     -0.2718
    110  CB        78.7780  -20.9550   34.1800 C.3   163  HIS163      0.0759
    111  CG        79.2230  -22.3770   34.0710 C.ar  163  HIS163      0.0818
    112  ND1       78.6750  -23.2550   33.1600 N.ar  163  HIS163     -0.2268
    113  CD2       80.1410  -23.0830   34.7700 C.ar  163  HIS163      0.1154
    114  CE1       79.2360  -24.4430   33.3040 C.ar  163  HIS163      0.1986
    115  NE2       80.1280  -24.3660   34.2750 N.ar  163  HIS163     -0.2212
    116  N         76.4600  -22.7340   35.5730 N.am  164  HIS164     -0.1961
    117  CA        76.0710  -23.4880   36.7470 C.3   164  HIS164      0.1787
    118  C         76.8160  -24.8120   36.9270 C.2   164  HIS164      0.2620
    119  O         77.4090  -25.0500   37.9770 O.2   164  HIS164     -0.2715
    120  CB        74.5670  -23.7560   36.7210 C.3   164  HIS164      0.0785
    121  CG        73.7380  -22.5980   37.1770 C.ar  164  HIS164      0.0821
    122  ND1       73.0740  -22.5900   38.3840 N.ar  164  HIS164     -0.2267
    123  CD2       73.4670  -21.4090   36.5910 C.ar  164  HIS164      0.1154
    124  CE1       72.4260  -21.4480   38.5230 C.ar  164  HIS164      0.1986
    125  NE2       72.6480  -20.7130   37.4490 N.ar  164  HIS164     -0.2212
    126  N         76.8230  -25.6610   35.9060 N.am  165  MET165     -0.1963
    127  CA        77.4470  -26.9690   36.0640 C.3   165  MET165      0.1736
    128  C         77.9430  -27.6400   34.8020 C.2   165  MET165      0.2616
    129  O         77.7450  -27.1580   33.6870 O.2   165  MET165     -0.2715
    130  CB        76.4270  -27.8890   36.7000 C.3   165  MET165      0.0427
    131  CG        75.1020  -27.7700   35.9770 C.3   165  MET165      0.0599
    132  SD        73.7660  -28.7150   36.6560 S.3   165  MET165     -0.1393
    133  CE        73.5020  -29.8860   35.3460 C.3   165  MET165      0.0692
    134  N         78.5830  -28.7830   34.9960 N.am  166  GLU166     -0.1963
    135  CA        79.0710  -29.5690   33.8810 C.3   166  GLU166      0.1733
    136  C         78.2550  -30.8600   33.8510 C.2   166  GLU166      0.2616
    137  O         78.0830  -31.5260   34.8750 O.2   166  GLU166     -0.2715
    138  CB        80.5470  -29.9010   34.0460 C.3   166  GLU166      0.0429
    139  CG        81.1530  -30.3850   32.7540 C.3   166  GLU166      0.1163
    140  CD        82.4100  -31.1960   32.9590 C.2   166  GLU166      0.3649
    141  OE1       82.3190  -32.2890   33.5670 O.co2 166  GLU166     -0.2457
    142  OE2       83.4820  -30.7400   32.5070 O.co2 166  GLU166     -0.2457
    143  N         77.7380  -31.1960   32.6750 N.am  167  LEU167     -0.1964
    144  CA        76.9350  -32.3950   32.4920 C.3   167  LEU167      0.1713
    145  C         77.8670  -33.5690   32.2730 C.2   167  LEU167      0.2458
    146  O         79.0000  -33.3940   31.8260 O.2   167  LEU167     -0.2730
    147  CB        76.0160  -32.2300   31.2860 C.3   167  LEU167      0.0310
    148  CG        74.5740  -31.7820   31.5270 C.3   167  LEU167      0.0022
    149  CD1       74.5250  -30.4880   32.2760 C.3   167  LEU167      0.0001
    150  CD2       73.8940  -31.6270   30.1840 C.3   167  LEU167      0.0001
    151  N         77.4090  -34.7890   32.5850 N.am  168  PRO168     -0.2727
    152  CA        78.2750  -35.9560   32.3940 C.3   168  PRO168      0.1402
    153  C         78.7840  -36.1470   30.9640 C.2   168  PRO168      0.2269
    154  O         79.8100  -36.7910   30.7470 O.2   168  PRO168     -0.2865
    155  CB        77.4090  -37.1200   32.8880 C.3   168  PRO168      0.0296
    156  CG        76.0110  -36.6240   32.7180 C.3   168  PRO168      0.0237
    157  CD        76.0990  -35.1810   33.1300 C.3   168  PRO168      0.0939
    158  N         78.3010  -28.0990   29.1830 N.3   172  HIS172     -0.1241
    159  CA        77.8670  -27.3060   30.3250 C.3   172  HIS172      0.1621
    160  C         76.4470  -26.7660   30.2920 C.2   172  HIS172      0.2264
    161  O         75.8880  -26.5040   29.2280 O.2   172  HIS172     -0.2867
    162  CB        78.8540  -26.1620   30.5290 C.3   172  HIS172      0.0745
    163  CG        80.2640  -26.6260   30.6570 C.ar  172  HIS172      0.0817
    164  ND1       81.1350  -26.6610   29.5890 N.ar  172  HIS172     -0.2268
    165  CD2       80.9310  -27.1670   31.7070 C.ar  172  HIS172      0.1154
    166  CE1       82.2760  -27.2070   29.9740 C.ar  172  HIS172      0.1986
    167  NE2       82.1780  -27.5240   31.2540 N.ar  172  HIS172     -0.2212
    168  N         69.4850  -27.6510   39.2420 N.3   187  ASP187     -0.1225
    169  CA        70.5460  -27.2890   40.1960 C.3   187  ASP187      0.1805
    170  C         70.8890  -28.4890   41.0770 C.2   187  ASP187      0.2598
    171  O         70.9160  -28.3590   42.3030 O.2   187  ASP187     -0.2718
    172  CB        70.0030  -26.1990   41.1160 C.3   187  ASP187      0.1424
    173  CG        70.5730  -24.8530   40.8350 C.2   187  ASP187      0.3668
    174  OD1       70.0090  -23.8670   41.3550 O.co2 187  ASP187     -0.2456
    175  OD2       71.5870  -24.7750   40.1140 O.co2 187  ASP187     -0.2456
    176  N         71.1750  -29.6430   40.4880 N.am  188  ARG188     -0.1966
    177  CA        71.4160  -30.8120   41.3120 C.3   188  ARG188      0.1729
    178  C         72.3170  -31.8690   40.7040 C.2   188  ARG188      0.2616
    179  O         72.1550  -32.2500   39.5490 O.2   188  ARG188     -0.2715
    180  CB        70.0600  -31.4240   41.6620 C.3   188  ARG188      0.0348
    181  CG        70.1240  -32.7940   42.2650 C.3   188  ARG188      0.0492
    182  CD        68.7360  -33.3810   42.4360 C.3   188  ARG188      0.2205
    183  NE        68.8150  -34.7720   42.8740 N.pl3 188  ARG188     -0.0865
    184  CZ        67.7780  -35.5970   42.9810 C.cat 188  ARG188      0.5346
    185  NH1       66.5540  -35.1760   42.6840 N.pl3 188  ARG188      0.1354
    186  NH2       67.9700  -36.8510   43.3690 N.pl3 188  ARG188      0.1354
    187  N         73.2580  -32.3670   41.4960 N.am  189  GLN189     -0.1963
    188  CA        74.1630  -33.3850   40.9990 C.3   189  GLN189      0.1733
    189  C         73.4560  -34.7190   40.8930 C.2   189  GLN189      0.2617
    190  O         73.4180  -35.4920   41.8510 O.2   189  GLN189     -0.2715
    191  CB        75.3840  -33.5100   41.9010 C.3   189  GLN189      0.0408
    192  CG        76.1150  -32.1970   42.0870 C.3   189  GLN189      0.0908
    193  CD        77.6010  -32.3770   42.2920 C.2   189  GLN189      0.2608
    194  OE1       78.3860  -31.5200   41.6600 O.2   189  GLN189     -0.2717
    195  NE2       78.0420  -33.2710   43.0200 N.am  189  GLN189     -0.0878
    196  N         72.8920  -34.9710   39.7150 N.am  190  THR190     -0.1937
    197  CA        72.1790  -36.2090   39.4280 C.3   190  THR190      0.2028
    198  C         72.3050  -36.5720   37.9620 C.2   190  THR190      0.2642
    199  O         72.8140  -35.7920   37.1620 O.2   190  THR190     -0.2714
    200  CB        70.6950  -36.0840   39.7480 C.3   190  THR190      0.1808
    201  OG1       70.1960  -34.8450   39.2310 O.3   190  THR190     -0.2208
    202  CG2       70.4800  -36.1380   41.2330 C.3   190  THR190      0.0379
    203  N         71.8390  -37.7650   37.6150 N.am  191  ALA191     -0.1963
    204  CA        71.8890  -38.2290   36.2370 C.3   191  ALA191      0.1728
    205  C         71.1770  -37.2210   35.3480 C.2   191  ALA191      0.2616
    206  O         69.9950  -36.9430   35.5310 O.2   191  ALA191     -0.2715
    207  CB        71.2160  -39.6020   36.1140 C.3   191  ALA191      0.0334
    208  N         71.9060  -36.6700   34.3900 N.am  192  GLN192     -0.1977
    209  CA        71.3350  -35.7020   33.4720 C.3   192  GLN192      0.1601
    210  C         72.0730  -35.7360   32.1420 C.2   192  GLN192      0.2287
    211  O         73.2070  -36.2050   32.0590 O.2   192  GLN192     -0.2864
    212  CB        71.4200  -34.2990   34.0630 C.3   192  GLN192      0.0394
    213  CG        70.2620  -33.9110   34.9580 C.3   192  GLN192      0.0908
    214  CD        70.4150  -32.5010   35.4990 C.2   192  GLN192      0.2608
    215  OE1       71.2380  -32.2450   36.3820 O.2   192  GLN192     -0.2717
    216  NE2       69.6360  -31.5760   34.9570 N.am  192  GLN192     -0.0878
@<TRIPOS>BOND
     1   158   159    1
     2   161   160    2
     3   164   166   ar
     4   164   163   ar
     5   166   167   ar
     6   150   148    1
     7   160   159    1
     8   159   162    1
     9   162   163    1
    10   163   165   ar
    11    63    64    1
    12   154   153    2
    13   153   152    1
    14    71    69   ar
    15    71    73   ar
    16    69    68   ar
    17   167   165   ar
    18   147   148    1
    19   147   144    1
    20   148   149    1
    21    73    72   ar
    22   146   145    2
    23    68    67    1
    24    68    70   ar
    25   211   210    2
    26    64    67    1
    27    64    65    1
    28   210   209    1
    29   145   144    1
    30   145   151   am
    31   152   151    1
    32   152   155    1
    33    72    70   ar
    34   144   143    1
    35   142   140   ar
    36   151   157    1
    37   143   136   am
    38   156   155    1
    39   156   157    1
    40   139   140    1
    41   139   138    1
    42   140   141   ar
    43    65    66    2
    44    65    74   am
    45   112   114   ar
    46   112   111   ar
    47   114   115   ar
    48   209   212    1
    49   209   208    1
    50   129   128    2
    51    74    75    1
    52   136   135    1
    53   136   137    2
    54   135   138    1
    55   135   134    1
    56   212   213    1
    57   111   110    1
    58   111   113   ar
    59   110   107    1
    60   106   107    1
    61   115   113   ar
    62   107   108    1
    63   208   205   am
    64    79    81    1
    65    79    80    1
    66    79    78    1
    67   128   134   am
    68   128   127    1
    69    75    78    1
    70    75    76    1
    71   216   214   am
    72   213   214    1
    73   133   132    1
    74   205   206    2
    75   205   204    1
    76   214   215    2
    77   116   108   am
    78   116   117    1
    79   108   109    2
    80    99    98    1
    81    77    76    2
    82   126   127    1
    83   126   118   am
    84    98    95    1
    85    76    82   am
    86   131   132    1
    87   131   130    1
    88   127   130    1
    89   207   204    1
    90   204   203    1
    91   123   121   ar
    92   123   125   ar
    93   120   117    1
    94   120   121    1
    95   117   118    1
    96    97    96    2
    97   118   119    2
    98    82    83    1
    99   199   198    2
   100   121   122   ar
   101    95    96    1
   102    95    94    1
   103   125   124   ar
   104    96   100   am
   105   203   198   am
   106   198   197    1
   107    83    86    1
   108    83    84    1
   109    94    92   am
   110   122   124   ar
   111   100   101    1
   112   101   102    1
   113   101   104    1
   114    86    87    1
   115   102   103    2
   116    84    85    2
   117    84    90   am
   118   201   200    1
   119   168   169    1
   120   197   196    1
   121   197   200    1
   122   179   178    2
   123    92    93    2
   124    92    91    1
   125    90    91    1
   126   196   189   am
   127   200   202    1
   128   104   105    1
   129   175   173   ar
   130   169   170    1
   131   169   172    1
   132    87    88    2
   133    87    89   am
   134   176   170   am
   135   176   177    1
   136   178   177    1
   137   178   187   am
   138   173   172    1
   139   173   174   ar
   140   189   188    1
   141   189   190    2
   142   188   187    1
   143   188   191    1
   144   170   171    2
   145   177   180    1
   146   194   193    2
   147   180   181    1
   148    55    56    1
   149   191   192    1
   150   192   193    1
   151   181   182    1
   152   193   195   am
   153   182   183    1
   154   185   184    1
   155    57    56    1
   156    57    58    2
   157   183   184    2
   158    26    23    1
   159    26    27    1
   160   184   186    1
   161    24    23    1
   162    24    25    2
   163    56    59    1
   164    29    27    1
   165    61    60    2
   166    23    22    1
   167    42    41    1
   168    34    31    1
   169    59    60    1
   170    27    28    1
   171    60    62   am
   172    54    53    1
   173    30    31    1
   174    38    37    2
   175    51    53   ar
   176    51    49   ar
   177    31    32    1
   178    22    17   am
   179    18    17    2
   180    53    52   ar
   181    41    40    1
   182    49    48   ar
   183    17    16    1
   184    37    36    1
   185    39    40    1
   186    39    36    1
   187    32    33    2
   188    52    50   ar
   189    48    50   ar
   190    48    47    1
   191    36    35    1
   192    21    19    1
   193    16    19    1
   194    16    15    1
   195    47    44    1
   196    19    20    1
   197    14    12    1
   198    15    10   am
   199    43    44    1
   200    44    45    1
   201    10     9    1
   202    10    11    2
   203    12     9    1
   204    12    13    1
   205     9     8    1
   206    45    46    2
   207     4     3    2
   208     8     3   am
   209     3     2    1
   210     7     5    1
   211     2     5    1
   212     2     1    1
   213     6     5    1
