@<TRIPOS>MOLECULE
tmp/2q6hA06.pdb
 155 147 0 0 0
SMALL
GASTEIGER

@<TRIPOS>ATOM
      1  N         28.5410   28.2210   15.6790 N.3    23  LEU23      -0.1245
      2  CA        28.5780   26.7840   15.9010 C.3    23  LEU23       0.1561
      3  C         27.1950   26.2500   16.2800 C.2    23  LEU23       0.2260
      4  O         26.8830   25.0790   16.0530 O.2    23  LEU23      -0.2867
      5  CB        29.5820   26.4560   17.0140 C.3    23  LEU23       0.0270
      6  CG        31.0260   26.9430   16.8300 C.3    23  LEU23       0.0019
      7  CD1       31.8780   26.4730   18.0170 C.3    23  LEU23       0.0001
      8  CD2       31.5910   26.4010   15.5140 C.3    23  LEU23       0.0001
      9  N         26.3070   22.9340   14.3460 N.3    27  LEU27      -0.1231
     10  CA        26.6170   21.7910   15.2000 C.3    27  LEU27       0.1693
     11  C         25.5230   21.4740   16.2220 C.2    27  LEU27       0.2591
     12  O         25.0460   20.3430   16.2950 O.2    27  LEU27      -0.2718
     13  CB        27.9390   22.0210   15.9430 C.3    27  LEU27       0.0284
     14  CG        29.2160   22.1160   15.1010 C.3    27  LEU27       0.0019
     15  CD1       30.4120   22.2880   16.0240 C.3    27  LEU27       0.0001
     16  CD2       29.3770   20.8550   14.2500 C.3    27  LEU27       0.0001
     17  N         25.1230   22.4750   17.0010 N.am   28  ARG28      -0.1980
     18  CA        24.1070   22.2820   18.0400 C.3    28  ARG28       0.1597
     19  C         22.6970   21.9800   17.5170 C.2    28  ARG28       0.2287
     20  O         22.0650   21.0260   17.9680 O.2    28  ARG28      -0.2864
     21  CB        24.0720   23.5150   18.9480 C.3    28  ARG28       0.0334
     22  CG        23.7040   23.2440   20.4140 C.3    28  ARG28       0.0492
     23  CD        23.5920   24.5680   21.1840 C.3    28  ARG28       0.2205
     24  NE        23.2600   24.4120   22.6070 N.pl3  28  ARG28      -0.0865
     25  CZ        24.1530   24.2640   23.5860 C.cat  28  ARG28       0.5346
     26  NH1       25.4500   24.2450   23.3180 N.pl3  28  ARG28       0.1354
     27  NH2       23.7480   24.1440   24.8450 N.pl3  28  ARG28       0.1354
     28  N         22.0550   18.3210   16.1650 N.3    31  VAL31      -0.1231
     29  CA        22.0090   17.3230   17.2300 C.3    31  VAL31       0.1692
     30  C         20.6910   17.4290   17.9940 C.2    31  VAL31       0.2591
     31  O         20.0020   16.4260   18.1870 O.2    31  VAL31      -0.2718
     32  CB        23.1900   17.4840   18.2130 C.3    31  VAL31       0.0266
     33  CG1       23.0060   16.5750   19.4170 C.3    31  VAL31       0.0020
     34  CG2       24.5000   17.1440   17.5030 C.3    31  VAL31       0.0020
     35  N         20.3440   18.6440   18.4140 N.am   32  GLN32      -0.1979
     36  CA        19.1020   18.8890   19.1500 C.3    32  GLN32       0.1601
     37  C         17.8720   18.4160   18.3770 C.2    32  GLN32       0.2287
     38  O         16.9940   17.7450   18.9310 O.2    32  GLN32      -0.2864
     39  CB        18.9590   20.3830   19.4550 C.3    32  GLN32       0.0394
     40  CG        20.0880   20.9390   20.2990 C.3    32  GLN32       0.0908
     41  CD        20.0720   20.3960   21.7070 C.2    32  GLN32       0.2608
     42  OE1       19.3350   20.8790   22.5640 O.2    32  GLN32      -0.2717
     43  NE2       20.8770   19.3710   21.9510 N.am   32  GLN32      -0.0878
     44  N         18.0150   14.5590   17.7500 N.3    35  GLU35      -0.1245
     45  CA        17.8830   13.9750   19.0730 C.3    35  GLU35       0.1567
     46  C         16.4460   14.0210   19.5900 C.2    35  GLU35       0.2260
     47  O         16.0510   13.1960   20.4130 O.2    35  GLU35      -0.2867
     48  CB        18.7910   14.7530   20.0180 C.3    35  GLU35       0.0388
     49  CG        19.2100   14.0660   21.2770 C.3    35  GLU35       0.1160
     50  CD        20.3740   14.7910   21.9200 C.2    35  GLU35       0.3649
     51  OE1       20.2350   16.0000   22.2070 O.co2  35  GLU35      -0.2457
     52  OE2       21.4310   14.1570   22.1270 O.co2  35  GLU35      -0.2457
     53  N         34.9150   27.9590   26.8240 N.3   105  TYR105     -0.1227
     54  CA        34.8740   26.6570   26.1700 C.3   105  TYR105      0.1736
     55  C         34.5480   26.8120   24.6920 C.2   105  TYR105      0.2595
     56  O         34.9810   26.0130   23.8730 O.2   105  TYR105     -0.2718
     57  CB        33.8650   25.7030   26.8470 C.3   105  TYR105      0.0548
     58  CG        32.3930   26.0390   26.6840 C.ar  105  TYR105     -0.0200
     59  CD1       31.6900   25.6830   25.5270 C.ar  105  TYR105     -0.0009
     60  CD2       31.6980   26.6930   27.7020 C.ar  105  TYR105     -0.0009
     61  CE1       30.3200   25.9730   25.3950 C.ar  105  TYR105      0.0417
     62  CE2       30.3360   26.9890   27.5830 C.ar  105  TYR105      0.0417
     63  CZ        29.6570   26.6290   26.4330 C.ar  105  TYR105      0.1957
     64  OH        28.3180   26.9350   26.3200 O.3   105  TYR105     -0.2866
     65  N         33.8020   27.8600   24.3470 N.am  106  TYR106     -0.1976
     66  CA        33.4110   28.0840   22.9550 C.3   106  TYR106      0.1639
     67  C         34.6150   28.3550   22.0540 C.2   106  TYR106      0.2290
     68  O         34.6790   27.8480   20.9360 O.2   106  TYR106     -0.2864
     69  CB        32.4240   29.2590   22.8660 C.3   106  TYR106      0.0560
     70  CG        31.6740   29.3670   21.5430 C.ar  106  TYR106     -0.0198
     71  CD1       30.3940   28.8240   21.3990 C.ar  106  TYR106     -0.0009
     72  CD2       32.2120   30.0720   20.4690 C.ar  106  TYR106     -0.0009
     73  CE1       29.6590   28.9930   20.2230 C.ar  106  TYR106      0.0417
     74  CE2       31.4900   30.2480   19.2830 C.ar  106  TYR106      0.0417
     75  CZ        30.2140   29.7120   19.1700 C.ar  106  TYR106      0.1957
     76  OH        29.4730   29.9310   18.0280 O.3   106  TYR106     -0.2866
     77  N         36.3930   25.0640   21.3220 N.3   109  ILE109     -0.1245
     78  CA        35.7410   24.2530   20.2980 C.3   109  ILE109      0.1561
     79  C         36.0060   24.8950   18.9310 C.2   109  ILE109      0.2260
     80  O         36.2410   24.2070   17.9370 O.2   109  ILE109     -0.2867
     81  CB        34.2190   24.1530   20.5310 C.3   109  ILE109      0.0252
     82  CG1       33.9430   23.4330   21.8580 C.3   109  ILE109      0.0019
     83  CG2       33.5660   23.3980   19.3750 C.3   109  ILE109      0.0019
     84  CD1       32.4740   23.4540   22.2740 C.3   109  ILE109      0.0001
     85  N         20.3700   29.9010   22.7380 N.3   249  PHE249     -0.1241
     86  CA        21.7380   29.7240   22.2970 C.3   249  PHE249      0.1605
     87  C         21.9960   30.2530   20.8840 C.2   249  PHE249      0.2264
     88  O         22.9420   31.0010   20.6600 O.2   249  PHE249     -0.2867
     89  CB        22.1260   28.2430   22.3640 C.3   249  PHE249      0.0534
     90  CG        23.6090   28.0100   22.2590 C.ar  249  PHE249     -0.0203
     91  CD1       24.4060   27.9920   23.4000 C.ar  249  PHE249     -0.0042
     92  CD2       24.2160   27.8600   21.0120 C.ar  249  PHE249     -0.0042
     93  CE1       25.7960   27.8310   23.3020 C.ar  249  PHE249     -0.0003
     94  CE2       25.6000   27.6990   20.9000 C.ar  249  PHE249     -0.0003
     95  CZ        26.3910   27.6850   22.0470 C.ar  249  PHE249     -0.0000
     96  N         26.2860   11.6350   20.8920 N.3   314  GLY314     -0.1210
     97  CA        26.8620   12.8580   21.4270 C.3   314  GLY314      0.1956
     98  C         28.2720   13.2920   21.0250 C.2   314  GLY314      0.2612
     99  O         28.6630   13.3130   19.8550 O.2   314  GLY314     -0.2717
    100  N         29.0100   13.6970   22.0500 N.am  315  ALA315     -0.1965
    101  CA        30.3660   14.1840   21.9330 C.3   315  ALA315      0.1728
    102  C         30.8660   14.6580   20.5860 C.2   315  ALA315      0.2616
    103  O         31.8630   14.1240   20.0860 O.2   315  ALA315     -0.2715
    104  CB        31.3190   13.1480   22.4840 C.3   315  ALA315      0.0334
    105  N         30.1960   15.6590   20.0080 N.am  316  PHE316     -0.1974
    106  CA        30.6150   16.2570   18.7300 C.3   316  PHE316      0.1639
    107  C         30.7620   15.2380   17.6150 C.2   316  PHE316      0.2290
    108  O         31.4350   15.4730   16.6110 O.2   316  PHE316     -0.2864
    109  CB        31.9420   16.9870   18.9550 C.3   316  PHE316      0.0560
    110  CG        31.8860   17.9950   20.0620 C.ar  316  PHE316     -0.0200
    111  CD1       31.4120   19.2820   19.8300 C.ar  316  PHE316     -0.0042
    112  CD2       32.2670   17.6400   21.3520 C.ar  316  PHE316     -0.0042
    113  CE1       31.3120   20.2000   20.8680 C.ar  316  PHE316     -0.0003
    114  CE2       32.1710   18.5520   22.3990 C.ar  316  PHE316     -0.0003
    115  CZ        31.6930   19.8330   22.1570 C.ar  316  PHE316     -0.0000
    116  N         34.7390   16.6740   30.7910 N.3   394  LYS394     -0.1245
    117  CA        33.4010   17.1320   31.1860 C.3   394  LYS394      0.1561
    118  C         33.2770   18.5510   31.7530 C.2   394  LYS394      0.2260
    119  O         32.1720   19.0060   32.0620 O.2   394  LYS394     -0.2867
    120  CB        32.7550   16.1220   32.1450 C.3   394  LYS394      0.0271
    121  CG        32.6140   14.7230   31.5340 C.3   394  LYS394      0.0035
    122  CD        32.1100   14.8060   30.0930 C.3   394  LYS394      0.0206
    123  CE        32.1380   13.4530   29.3920 C.3   394  LYS394      0.1093
    124  NZ        31.7680   13.5760   27.9490 N.3   394  LYS394     -0.1314
    125  N         33.8520   21.1870   30.0430 N.3   396  LEU396     -0.1231
    126  CA        33.1530   21.8870   28.9690 C.3   396  LEU396      0.1693
    127  C         31.6420   21.7210   29.1240 C.2   396  LEU396      0.2592
    128  O         30.8910   22.6860   29.0210 O.2   396  LEU396     -0.2718
    129  CB        33.6010   21.3400   27.6070 C.3   396  LEU396      0.0284
    130  CG        33.0010   22.0050   26.3650 C.3   396  LEU396      0.0019
    131  CD1       33.9460   21.8160   25.1770 C.3   396  LEU396      0.0001
    132  CD2       31.6160   21.4190   26.0790 C.3   396  LEU396      0.0001
    133  N         31.1990   20.4940   29.3780 N.am  397  ASP397     -0.1974
    134  CA        29.7730   20.2210   29.5280 C.3   397  ASP397      0.1709
    135  C         29.1620   20.9830   30.7040 C.2   397  ASP397      0.2293
    136  O         28.0520   21.5070   30.6140 O.2   397  ASP397     -0.2864
    137  CB        29.5410   18.7170   29.7180 C.3   397  ASP397      0.1436
    138  CG        30.1260   17.8820   28.5850 C.2   397  ASP397      0.3671
    139  OD1       29.3670   17.1120   27.9670 O.co2 397  ASP397     -0.2456
    140  OD2       31.3470   17.9880   28.3180 O.co2 397  ASP397     -0.2456
    141  N         28.9200   24.6670   29.7570 N.3   400  ASP400     -0.1239
    142  CA        27.8740   24.8220   28.7510 C.3   400  ASP400      0.1674
    143  C         26.4980   24.7280   29.4070 C.2   400  ASP400      0.2266
    144  O         25.5450   25.3680   28.9690 O.2   400  ASP400     -0.2867
    145  CB        28.0040   23.7420   27.6720 C.3   400  ASP400      0.1410
    146  CG        26.9310   23.8610   26.5980 C.2   400  ASP400      0.3668
    147  OD1       27.0050   24.8070   25.7850 O.co2 400  ASP400     -0.2456
    148  OD2       26.0140   23.0100   26.5780 O.co2 400  ASP400     -0.2456
    149  N         23.1500   27.1440   29.1440 N.3   405  THR405     -0.1218
    150  CA        21.8450   26.5090   29.0370 C.3   405  THR405      0.1862
    151  C         20.8870   27.0490   30.1030 C.2   405  THR405      0.2287
    152  O         19.8970   27.6940   29.7750 O.2   405  THR405     -0.2866
    153  CB        21.9790   24.9680   29.1400 C.3   405  THR405      0.1770
    154  OG1       22.9740   24.5140   28.2100 O.3   405  THR405     -0.2211
    155  CG2       20.6630   24.2930   28.7890 C.3   405  THR405      0.0375
@<TRIPOS>BOND
     1    16    14    1
     2     9    10    1
     3    14    13    1
     4    14    15    1
     5    10    13    1
     6    10    11    1
     7     8     6    1
     8     1     2    1
     9     2     3    1
    10     2     5    1
    11     4     3    2
    12    28    29    1
    13    11    12    2
    14    11    17   am
    15   108   107    2
    16     6     5    1
    17     6     7    1
    18    17    18    1
    19    29    30    1
    20    29    32    1
    21    34    32    1
    22    19    20    2
    23    19    18    1
    24   107   106    1
    25    44    45    1
    26    80    79    2
    27    30    31    2
    28    30    35   am
    29    76    75    1
    30    18    21    1
    31    32    33    1
    32    37    38    2
    33    37    36    1
    34    35    36    1
    35   106   109    1
    36   106   105    1
    37    79    78    1
    38    21    22    1
    39   109   110    1
    40    45    46    1
    41    45    48    1
    42    36    39    1
    43    75    74   ar
    44    75    73   ar
    45    74    72   ar
    46    83    81    1
    47    39    40    1
    48    46    47    2
    49   111   110   ar
    50   111   113   ar
    51    99    98    2
    52   105   102   am
    53    48    49    1
    54   110   112   ar
    55   103   102    2
    56    73    71   ar
    57    78    81    1
    58    78    77    1
    59    40    41    1
    60    22    23    1
    61    72    70   ar
    62    81    82    1
    63   102   101    1
    64    88    87    2
    65   113   115   ar
    66    87    86    1
    67    96    97    1
    68    94    92   ar
    69    94    95   ar
    70    68    67    2
    71    92    90   ar
    72    98    97    1
    73    98   100   am
    74    23    24    1
    75    49    50    1
    76   112   114   ar
    77    71    70   ar
    78    70    69    1
    79    41    43   am
    80    41    42    2
    81    82    84    1
    82    50    52   ar
    83    50    51   ar
    84   101   100    1
    85   101   104    1
    86    95    93   ar
    87    67    66    1
    88   115   114   ar
    89    90    89    1
    90    90    91   ar
    91    86    89    1
    92    86    85    1
    93    24    25    2
    94    69    66    1
    95    66    65    1
    96    93    91   ar
    97    26    25    1
    98    25    27    1
    99    56    55    2
   100    65    55   am
   101    55    54    1
   102   131   130    1
   103    61    59   ar
   104    61    63   ar
   105    59    58   ar
   106   147   146   ar
   107   132   130    1
   108    54    53    1
   109    54    57    1
   110    64    63    1
   111   130   129    1
   112    63    62   ar
   113   148   146   ar
   114   146   145    1
   115    58    57    1
   116    58    60   ar
   117    62    60   ar
   118   129   126    1
   119   145   142    1
   120   124   123    1
   121   139   138   ar
   122   154   153    1
   123   140   138   ar
   124   138   137    1
   125   142   143    1
   126   142   141    1
   127   155   153    1
   128   126   127    1
   129   126   125    1
   130   144   143    2
   131   128   127    2
   132   150   153    1
   133   150   149    1
   134   150   151    1
   135   127   133   am
   136   133   134    1
   137   123   122    1
   138   134   137    1
   139   134   135    1
   140   152   151    2
   141   122   121    1
   142   136   135    2
   143   116   117    1
   144   117   118    1
   145   117   120    1
   146   121   120    1
   147   118   119    2
