@<TRIPOS>MOLECULE
tmp/2q6hA07.pdb
 117 112 0 0 0
SMALL
GASTEIGER

@<TRIPOS>ATOM
      1  N         43.8380   35.2640   16.8330 N.3   174  ILE174     -0.1245
      2  CA        42.9790   35.7520   15.7610 C.3   174  ILE174      0.1561
      3  C         41.7910   36.5330   16.3260 C.2   174  ILE174      0.2260
      4  O         41.4140   37.5800   15.7900 O.2   174  ILE174     -0.2867
      5  CB        42.5070   34.5820   14.8770 C.3   174  ILE174      0.0252
      6  CG1       43.7080   34.0280   14.0980 C.3   174  ILE174      0.0019
      7  CG2       41.4140   35.0390   13.9270 C.3   174  ILE174      0.0019
      8  CD1       43.4170   32.7530   13.3310 C.3   174  ILE174      0.0001
      9  N         43.1710   39.8650   17.3410 N.3   177  SER177     -0.1202
     10  CA        43.4930   40.7340   16.2070 C.3   177  SER177      0.2020
     11  C         42.2660   41.4920   15.6930 C.2   177  SER177      0.2618
     12  O         42.3840   42.6010   15.1770 O.2   177  SER177     -0.2717
     13  CB        44.1360   39.9240   15.0700 C.3   177  SER177      0.2103
     14  OG        43.1900   39.0860   14.4190 O.3   177  SER177     -0.2182
     15  N         41.0860   40.8990   15.8350 N.am  178  ILE178     -0.1979
     16  CA        39.8550   41.5580   15.3980 C.3   178  ILE178      0.1595
     17  C         39.3460   42.5150   16.4800 C.2   178  ILE178      0.2287
     18  O         39.0690   43.6910   16.2100 O.2   178  ILE178     -0.2864
     19  CB        38.7450   40.5280   15.1010 C.3   178  ILE178      0.0276
     20  CG1       39.1440   39.6690   13.8990 C.3   178  ILE178      0.0022
     21  CG2       37.4130   41.2430   14.8400 C.3   178  ILE178      0.0022
     22  CD1       38.2660   38.4470   13.7070 C.3   178  ILE178      0.0001
     23  N         40.9350   45.9730   17.2620 N.3   181  ARG181     -0.1245
     24  CA        40.7000   47.0440   16.2980 C.3   181  ARG181      0.1563
     25  C         39.3700   47.7380   16.5710 C.2   181  ARG181      0.2260
     26  O         39.0010   48.6860   15.8800 O.2   181  ARG181     -0.2867
     27  CB        40.7230   46.5090   14.8580 C.3   181  ARG181      0.0307
     28  CG        42.0910   46.0270   14.3740 C.3   181  ARG181      0.0489
     29  CD        42.0800   45.8580   12.8590 C.3   181  ARG181      0.2205
     30  NE        42.9720   44.8050   12.3720 N.pl3 181  ARG181     -0.0865
     31  CZ        44.2950   44.9040   12.2770 C.cat 181  ARG181      0.5346
     32  NH1       45.0020   43.8780   11.8180 N.pl3 181  ARG181      0.1354
     33  NH2       44.9150   46.0170   12.6390 N.pl3 181  ARG181      0.1354
     34  N         36.1860   49.3190   12.9100 N.3   185  LYS185     -0.1231
     35  CA        37.3410   48.8420   12.1510 C.3   185  LYS185      0.1693
     36  C         37.7030   47.3880   12.4390 C.2   185  LYS185      0.2592
     37  O         38.5130   46.7910   11.7290 O.2   185  LYS185     -0.2718
     38  CB        38.5650   49.7240   12.4310 C.3   185  LYS185      0.0285
     39  CG        38.4360   51.1650   11.9460 C.3   185  LYS185      0.0035
     40  CD        39.7640   51.9090   12.0730 C.3   185  LYS185      0.0206
     41  CE        39.7080   53.2770   11.3970 C.3   185  LYS185      0.1093
     42  NZ        41.0410   53.9570   11.3920 N.3   185  LYS185     -0.1314
     43  N         37.1050   46.8240   13.4820 N.am  186  GLY186     -0.1957
     44  CA        37.4000   45.4480   13.8360 C.3   186  GLY186      0.1869
     45  C         36.2570   44.4900   13.5640 C.2   186  GLY186      0.2309
     46  O         36.2390   43.8130   12.5330 O.2   186  GLY186     -0.2863
     47  N         34.0730   45.4720   10.2960 N.3   189  ARG189     -0.1231
     48  CA        34.8730   45.2390    9.1060 C.3   189  ARG189      0.1694
     49  C         34.9900   43.7390    8.8430 C.2   189  ARG189      0.2592
     50  O         34.7890   43.2770    7.7190 O.2   189  ARG189     -0.2718
     51  CB        36.2620   45.8540    9.2870 C.3   189  ARG189      0.0321
     52  CG        37.0820   45.9240    8.0150 C.3   189  ARG189      0.0489
     53  CD        37.6830   47.3060    7.8510 C.3   189  ARG189      0.2205
     54  NE        36.6410   48.3280    7.9020 N.pl3 189  ARG189     -0.0865
     55  CZ        36.8370   49.6200    7.6600 C.cat 189  ARG189      0.5346
     56  NH1       38.0460   50.0660    7.3440 N.pl3 189  ARG189      0.1354
     57  NH2       35.8200   50.4700    7.7290 N.pl3 189  ARG189      0.1354
     58  N         35.3020   42.9730    9.8820 N.am  190  PHE190     -0.1976
     59  CA        35.4340   41.5310    9.7200 C.3   190  PHE190      0.1639
     60  C         34.1210   40.8720    9.3130 C.2   190  PHE190      0.2290
     61  O         34.1150   39.9800    8.4730 O.2   190  PHE190     -0.2864
     62  CB        35.9440   40.8690   11.0030 C.3   190  PHE190      0.0560
     63  CG        36.1970   39.3950   10.8510 C.ar  190  PHE190     -0.0200
     64  CD1       37.2490   38.9350   10.0600 C.ar  190  PHE190     -0.0042
     65  CD2       35.3550   38.4630   11.4490 C.ar  190  PHE190     -0.0042
     66  CE1       37.4560   37.5650    9.8640 C.ar  190  PHE190     -0.0003
     67  CE2       35.5540   37.0900   11.2580 C.ar  190  PHE190     -0.0003
     68  CZ        36.6060   36.6430   10.4650 C.ar  190  PHE190     -0.0000
     69  N         33.2750   40.6920    5.7330 N.3   193  ILE193     -0.1245
     70  CA        34.0810   39.7480    4.9750 C.3   193  ILE193      0.1561
     71  C         33.6620   38.3140    5.2910 C.2   193  ILE193      0.2260
     72  O         33.4790   37.4930    4.3920 O.2   193  ILE193     -0.2867
     73  CB        35.5690   39.8940    5.3280 C.3   193  ILE193      0.0252
     74  CG1       36.0560   41.2900    4.9510 C.3   193  ILE193      0.0019
     75  CG2       36.3840   38.8230    4.6160 C.3   193  ILE193      0.0019
     76  CD1       37.4360   41.6010    5.4740 C.3   193  ILE193      0.0001
     77  N         36.2090   24.9930    7.7180 N.3   342  PHE342     -0.1241
     78  CA        36.5340   26.3970    7.5060 C.3   342  PHE342      0.1605
     79  C         35.2500   27.1930    7.7740 C.2   342  PHE342      0.2264
     80  O         35.2770   28.2670    8.3860 O.2   342  PHE342     -0.2867
     81  CB        36.9950   26.6300    6.0660 C.3   342  PHE342      0.0534
     82  CG        37.6190   27.9760    5.8450 C.ar  342  PHE342     -0.0203
     83  CD1       38.8920   28.2500    6.3260 C.ar  342  PHE342     -0.0042
     84  CD2       36.9250   28.9750    5.1690 C.ar  342  PHE342     -0.0042
     85  CE1       39.4720   29.5060    6.1390 C.ar  342  PHE342     -0.0003
     86  CE2       37.4910   30.2350    4.9750 C.ar  342  PHE342     -0.0003
     87  CZ        38.7690   30.5010    5.4590 C.ar  342  PHE342     -0.0000
     88  N         34.7580   27.3750   11.4020 N.3   345  PHE345     -0.1227
     89  CA        35.6910   28.3070   12.0100 C.3   345  PHE345      0.1736
     90  C         35.2080   29.7540   11.9060 C.2   345  PHE345      0.2595
     91  O         35.2390   30.4850   12.8890 O.2   345  PHE345     -0.2718
     92  CB        37.0840   28.1860   11.3880 C.3   345  PHE345      0.0547
     93  CG        38.0660   29.1670   11.9550 C.ar  345  PHE345     -0.0202
     94  CD1       38.3300   29.1850   13.3230 C.ar  345  PHE345     -0.0042
     95  CD2       38.6740   30.1160   11.1430 C.ar  345  PHE345     -0.0042
     96  CE1       39.1800   30.1340   13.8740 C.ar  345  PHE345     -0.0003
     97  CE2       39.5270   31.0690   11.6870 C.ar  345  PHE345     -0.0003
     98  CZ        39.7790   31.0790   13.0530 C.ar  345  PHE345     -0.0000
     99  N         34.7720   30.1700   10.7180 N.am  346  PHE346     -0.1976
    100  CA        34.2740   31.5330   10.5390 C.3   346  PHE346      0.1639
    101  C         32.9690   31.7460   11.3010 C.2   346  PHE346      0.2290
    102  O         32.7210   32.8280   11.8280 O.2   346  PHE346     -0.2864
    103  CB        34.0750   31.8410    9.0500 C.3   346  PHE346      0.0560
    104  CG        35.2150   32.6080    8.4370 C.ar  346  PHE346     -0.0200
    105  CD1       36.4940   32.5200    8.9720 C.ar  346  PHE346     -0.0042
    106  CD2       35.0080   33.4260    7.3270 C.ar  346  PHE346     -0.0042
    107  CE1       37.5570   33.2370    8.4150 C.ar  346  PHE346     -0.0003
    108  CE2       36.0620   34.1460    6.7610 C.ar  346  PHE346     -0.0003
    109  CZ        37.3400   34.0510    7.3100 C.ar  346  PHE346     -0.0000
    110  N         34.2480   32.0530   14.9340 N.3   349  LEU349     -0.1245
    111  CA        34.9950   33.2930   15.1500 C.3   349  LEU349      0.1561
    112  C         34.1040   34.5500   15.2470 C.2   349  LEU349      0.2260
    113  O         34.3100   35.3990   16.1170 O.2   349  LEU349     -0.2867
    114  CB        36.0270   33.4720   14.0230 C.3   349  LEU349      0.0270
    115  CG        36.9530   34.6960   14.0520 C.3   349  LEU349      0.0019
    116  CD1       37.6820   34.7720   15.3930 C.3   349  LEU349      0.0001
    117  CD2       37.9580   34.5940   12.9080 C.3   349  LEU349      0.0001
@<TRIPOS>BOND
     1    72    71    2
     2    75    73    1
     3    74    73    1
     4    74    76    1
     5    70    71    1
     6    70    73    1
     7    70    69    1
     8    86    84   ar
     9    86    87   ar
    10    84    82   ar
    11    87    85   ar
    12    82    81    1
    13    82    83   ar
    14    81    78    1
    15    85    83   ar
    16   108   109   ar
    17   108   106   ar
    18   109   107   ar
    19   106   104   ar
    20    56    55    1
    21    78    77    1
    22    78    79    1
    23    55    57    1
    24    55    54    2
    25    50    49    2
    26    79    80    2
    27    53    54    1
    28    53    52    1
    29    52    51    1
    30   107   105   ar
    31   104   105   ar
    32   104   103    1
    33    61    60    2
    34    49    48    1
    35    49    58   am
    36   103   100    1
    37    48    51    1
    38    48    47    1
    39    60    59    1
    40    59    58    1
    41    59    62    1
    42    66    64   ar
    43    66    68   ar
    44    64    63   ar
    45    68    67   ar
    46   100    99    1
    47   100   101    1
    48    99    90   am
    49    63    62    1
    50    63    65   ar
    51    95    97   ar
    52    95    93   ar
    53    67    65   ar
    54   101   102    2
    55    92    93    1
    56    92    89    1
    57    42    41    1
    58    41    40    1
    59    88    89    1
    60    97    98   ar
    61    37    36    2
    62    32    31    1
    63    90    89    1
    64    90    91    2
    65    39    40    1
    66    39    38    1
    67    93    94   ar
    68    35    38    1
    69    35    36    1
    70    35    34    1
    71    31    30    2
    72    31    33    1
    73    30    29    1
    74    36    43   am
    75    46    45    2
    76    29    28    1
    77   117   115    1
    78    98    96   ar
    79    94    96   ar
    80     8     6    1
    81    43    44    1
    82    45    44    1
    83    22    20    1
    84    20    19    1
    85     7     5    1
    86   114   115    1
    87   114   111    1
    88   115   116    1
    89     6     5    1
    90    28    27    1
    91    14    13    1
    92    21    19    1
    93    27    24    1
    94     5     2    1
    95   110   111    1
    96    13    10    1
    97    19    16    1
    98   111   112    1
    99    12    11    2
   100   112   113    2
   101    16    15    1
   102    16    17    1
   103    11    15   am
   104    11    10    1
   105     2     3    1
   106     2     1    1
   107     4     3    2
   108    26    25    2
   109    10     9    1
   110    18    17    2
   111    24    25    1
   112    24    23    1
