@<TRIPOS>MOLECULE
tmp/2q6hA05.pdb
 105 99 0 0 0
SMALL
GASTEIGER

@<TRIPOS>ATOM
      1  N         27.2040   37.4850   15.1640 N.3    19  ASN19      -0.1225
      2  CA        27.1320   37.2880   16.6050 C.3    19  ASN19       0.1785
      3  C         26.2850   36.0180   16.7790 C.2    19  ASN19       0.2597
      4  O         26.6980   35.0510   17.4210 O.2    19  ASN19      -0.2718
      5  CB        26.4140   38.4970   17.2310 C.3    19  ASN19       0.1169
      6  CG        26.2460   38.3900   18.7430 C.2    19  ASN19       0.2627
      7  OD1       25.9440   37.3230   19.2860 O.2    19  ASN19      -0.2716
      8  ND2       26.4150   39.5190   19.4280 N.am   19  ASN19      -0.0877
      9  N         25.1120   36.0300   16.1530 N.am   20  ALA20      -0.1979
     10  CA        24.1670   34.9210   16.2300 C.3    20  ALA20       0.1597
     11  C         24.5460   33.6600   15.4490 C.2    20  ALA20       0.2287
     12  O         24.5450   32.5650   16.0060 O.2    20  ALA20      -0.2864
     13  CB        22.7870   35.4000   15.7860 C.3    20  ALA20       0.0319
     14  N         26.5570   30.9190   14.3110 N.3    22  GLY22      -0.1210
     15  CA        27.8100   30.2920   14.6900 C.3    22  GLY22       0.1956
     16  C         27.7260   28.7840   14.7950 C.2    22  GLY22       0.2612
     17  O         26.9530   28.1420   14.0870 O.2    22  GLY22      -0.2717
     18  N         28.5410   28.2210   15.6790 N.am   23  LEU23      -0.1965
     19  CA        28.5780   26.7840   15.9010 C.3    23  LEU23       0.1728
     20  C         27.1950   26.2500   16.2800 C.2    23  LEU23       0.2617
     21  O         26.8830   25.0790   16.0530 O.2    23  LEU23      -0.2715
     22  CB        29.5820   26.4560   17.0140 C.3    23  LEU23       0.0311
     23  CG        31.0260   26.9430   16.8300 C.3    23  LEU23       0.0022
     24  CD1       31.8780   26.4730   18.0170 C.3    23  LEU23       0.0001
     25  CD2       31.5910   26.4010   15.5140 C.3    23  LEU23       0.0001
     26  N         26.3620   27.1130   16.8520 N.am   24  GLY24      -0.1940
     27  CA        25.0320   26.6840   17.2450 C.3    24  GLY24       0.2014
     28  C         24.1520   26.2910   16.0700 C.2    24  GLY24       0.2638
     29  O         23.3210   25.3850   16.1730 O.2    24  GLY24      -0.2714
     30  N         24.3400   26.9720   14.9460 N.am   25  ASN25      -0.1972
     31  CA        23.5520   26.7070   13.7460 C.3    25  ASN25       0.1688
     32  C         23.9470   25.4210   13.0440 C.2    25  ASN25       0.2292
     33  O         23.0970   24.6590   12.5890 O.2    25  ASN25      -0.2864
     34  CB        23.7150   27.8390   12.7270 C.3    25  ASN25       0.1181
     35  CG        23.3260   29.1840   13.2770 C.2    25  ASN25       0.2629
     36  OD1       23.8870   29.6460   14.2700 O.2    25  ASN25      -0.2716
     37  ND2       22.3620   29.8330   12.6250 N.am   25  ASN25      -0.0877
     38  N         31.0520   31.1000   28.7380 N.3   102  VAL102     -0.1245
     39  CA        30.7910   30.4690   27.4520 C.3   102  VAL102      0.1561
     40  C         31.9990   30.6120   26.5380 C.2   102  VAL102      0.2260
     41  O         32.3530   29.6730   25.8310 O.2   102  VAL102     -0.2867
     42  CB        29.5260   31.0540   26.7810 C.3   102  VAL102      0.0252
     43  CG1       29.3990   30.5460   25.3320 C.3   102  VAL102      0.0019
     44  CG2       28.3000   30.6250   27.5850 C.3   102  VAL102      0.0019
     45  N         33.8020   27.8600   24.3470 N.3   106  TYR106     -0.1241
     46  CA        33.4110   28.0840   22.9550 C.3   106  TYR106      0.1605
     47  C         34.6150   28.3550   22.0540 C.2   106  TYR106      0.2264
     48  O         34.6790   27.8480   20.9360 O.2   106  TYR106     -0.2867
     49  CB        32.4240   29.2590   22.8660 C.3   106  TYR106      0.0534
     50  CG        31.6740   29.3670   21.5430 C.ar  106  TYR106     -0.0201
     51  CD1       30.3940   28.8240   21.3990 C.ar  106  TYR106     -0.0009
     52  CD2       32.2120   30.0720   20.4690 C.ar  106  TYR106     -0.0009
     53  CE1       29.6590   28.9930   20.2230 C.ar  106  TYR106      0.0417
     54  CE2       31.4900   30.2480   19.2830 C.ar  106  TYR106      0.0417
     55  CZ        30.2140   29.7120   19.1700 C.ar  106  TYR106      0.1957
     56  OH        29.4730   29.9310   18.0280 O.3   106  TYR106     -0.2866
     57  N         20.3700   29.9010   22.7380 N.3   249  PHE249     -0.1227
     58  CA        21.7380   29.7240   22.2970 C.3   249  PHE249      0.1736
     59  C         21.9960   30.2530   20.8840 C.2   249  PHE249      0.2596
     60  O         22.9420   31.0010   20.6600 O.2   249  PHE249     -0.2718
     61  CB        22.1260   28.2430   22.3640 C.3   249  PHE249      0.0547
     62  CG        23.6090   28.0100   22.2590 C.ar  249  PHE249     -0.0202
     63  CD1       24.4060   27.9920   23.4000 C.ar  249  PHE249     -0.0042
     64  CD2       24.2160   27.8600   21.0120 C.ar  249  PHE249     -0.0042
     65  CE1       25.7960   27.8310   23.3020 C.ar  249  PHE249     -0.0003
     66  CE2       25.6000   27.6990   20.9000 C.ar  249  PHE249     -0.0003
     67  CZ        26.3910   27.6850   22.0470 C.ar  249  PHE249     -0.0000
     68  N         21.1530   29.8700   19.9350 N.am  250  THR250     -0.1953
     69  CA        21.3700   30.2810   18.5520 C.3   250  THR250      0.1897
     70  C         21.2010   31.7670   18.2810 C.2   250  THR250      0.2313
     71  O         21.8540   32.3180   17.3920 O.2   250  THR250     -0.2863
     72  CB        20.4880   29.4590   17.5740 C.3   250  THR250      0.1794
     73  OG1       21.0310   29.5730   16.2530 O.3   250  THR250     -0.2208
     74  CG2       19.0370   29.9540   17.5760 C.3   250  THR250      0.0378
     75  N         21.9210   34.0560   20.5020 N.3   252  SER252     -0.1217
     76  CA        22.8300   34.7380   21.4280 C.3   252  SER252      0.1889
     77  C         22.0490   35.5320   22.4780 C.2   252  SER252      0.2288
     78  O         22.4860   36.5930   22.9050 O.2   252  SER252     -0.2866
     79  CB        23.7590   35.7000   20.6800 C.3   252  SER252      0.2089
     80  OG        24.5310   35.0360   19.6990 O.3   252  SER252     -0.2183
     81  N         23.0550   36.1720   26.9300 N.3   255  PHE255     -0.1241
     82  CA        24.5150   36.1320   27.0440 C.3   255  PHE255      0.1605
     83  C         25.0880   37.5410   27.2340 C.2   255  PHE255      0.2264
     84  O         26.3030   37.7160   27.3300 O.2   255  PHE255     -0.2867
     85  CB        25.1330   35.5440   25.7670 C.3   255  PHE255      0.0534
     86  CG        24.7980   34.0990   25.5150 C.ar  255  PHE255     -0.0203
     87  CD1       25.6720   33.0860   25.9220 C.ar  255  PHE255     -0.0042
     88  CD2       23.6460   33.7480   24.8150 C.ar  255  PHE255     -0.0042
     89  CE1       25.4050   31.7440   25.6260 C.ar  255  PHE255     -0.0003
     90  CE2       23.3690   32.4110   24.5130 C.ar  255  PHE255     -0.0003
     91  CZ        24.2550   31.4050   24.9200 C.ar  255  PHE255     -0.0000
     92  N         31.2190   34.6720   16.2390 N.3   351  SER351     -0.1217
     93  CA        30.4230   34.5480   17.4550 C.3   351  SER351      0.1889
     94  C         31.2620   34.7010   18.7220 C.2   351  SER351      0.2288
     95  O         30.7940   35.2750   19.7020 O.2   351  SER351     -0.2866
     96  CB        29.6970   33.1970   17.5020 C.3   351  SER351      0.2089
     97  OG        28.6260   33.1550   16.5800 O.3   351  SER351     -0.2183
     98  N         31.0990   37.2610   22.3110 N.3   355  ILE355     -0.1245
     99  CA        30.9780   36.9400   23.7330 C.3   355  ILE355      0.1561
    100  C         32.1780   37.3590   24.5670 C.2   355  ILE355      0.2260
    101  O         32.1960   37.1600   25.7820 O.2   355  ILE355     -0.2867
    102  CB        30.6430   35.4380   24.0010 C.3   355  ILE355      0.0252
    103  CG1       31.5430   34.5100   23.1890 C.3   355  ILE355      0.0019
    104  CG2       29.1720   35.1910   23.7040 C.3   355  ILE355      0.0019
    105  CD1       31.2310   33.0200   23.4150 C.3   355  ILE355      0.0001
@<TRIPOS>BOND
     1    33    32    2
     2    37    35   am
     3    34    35    1
     4    34    31    1
     5    32    31    1
     6    35    36    2
     7    31    30    1
     8    17    16    2
     9    14    15    1
    10    15    16    1
    11    16    18   am
    12    30    28   am
    13     1     2    1
    14    11    12    2
    15    11    10    1
    16    25    23    1
    17    18    19    1
    18    13    10    1
    19    19    20    1
    20    19    22    1
    21    21    20    2
    22    28    29    2
    23    28    27    1
    24     9    10    1
    25     9     3   am
    26    92    93    1
    27    73    72    1
    28    20    26   am
    29    97    96    1
    30     2     3    1
    31     2     5    1
    32     3     4    2
    33    23    22    1
    34    23    24    1
    35    26    27    1
    36     5     6    1
    37    71    70    2
    38    93    96    1
    39    93    94    1
    40    72    74    1
    41    72    69    1
    42    56    55    1
    43    70    69    1
    44    69    68    1
    45    94    95    2
    46     6     7    2
    47     6     8   am
    48    55    54   ar
    49    55    53   ar
    50    54    52   ar
    51    80    79    1
    52    68    59   am
    53    53    51   ar
    54    52    50   ar
    55    75    76    1
    56    60    59    2
    57    79    76    1
    58    59    58    1
    59    66    64   ar
    60    66    67   ar
    61    48    47    2
    62    64    62   ar
    63    51    50   ar
    64    76    77    1
    65    50    49    1
    66    67    65   ar
    67    47    46    1
    68    62    61    1
    69    62    63   ar
    70    58    61    1
    71    58    57    1
    72    98    99    1
    73    77    78    2
    74    49    46    1
    75    46    45    1
    76   103   105    1
    77   103   102    1
    78    65    63   ar
    79   104   102    1
    80    99   102    1
    81    99   100    1
    82    90    88   ar
    83    90    91   ar
    84   100   101    2
    85    88    86   ar
    86    91    89   ar
    87    43    42    1
    88    86    85    1
    89    86    87   ar
    90    89    87   ar
    91    85    82    1
    92    41    40    2
    93    40    39    1
    94    42    39    1
    95    42    44    1
    96    81    82    1
    97    82    83    1
    98    83    84    2
    99    39    38    1
