@<TRIPOS>MOLECULE
tmp/2q6iA03.pdb
 76 70 0 0 0
SMALL
GASTEIGER

@<TRIPOS>ATOM
      1  N         61.4320  -14.0170   23.7560 N.3     1  MET1       -0.1245
      2  CA        60.1360  -14.7880   23.7560 C.3     1  MET1        0.1570
      3  C         60.1250  -16.0260   22.8840 C.2     1  MET1        0.2261
      4  O         60.3860  -15.9590   21.6690 O.2     1  MET1       -0.2867
      5  CB        58.9680  -13.8760   23.3650 C.3     1  MET1        0.0387
      6  CG        57.6200  -14.5770   23.5220 C.3     1  MET1        0.0595
      7  SD        57.2660  -14.9830   25.2120 S.3     1  MET1       -0.1393
      8  CE        57.1890  -13.4400   26.0740 C.3     1  MET1        0.0692
      9  N         58.9860  -18.8350   20.4120 N.3     3  HIS3       -0.1241
     10  CA        58.0570  -18.9600   19.2770 C.3     3  HIS3        0.1621
     11  C         58.2120  -20.3590   18.6850 C.2     3  HIS3        0.2264
     12  O         58.9080  -20.5430   17.6730 O.2     3  HIS3       -0.2867
     13  CB        58.3530  -17.9010   18.1980 C.3     3  HIS3        0.0745
     14  CG        57.9300  -16.5100   18.5600 C.ar    3  HIS3        0.0817
     15  ND1       58.5070  -15.7960   19.5870 N.ar    3  HIS3       -0.2268
     16  CD2       57.0070  -15.6870   18.0050 C.ar    3  HIS3        0.1154
     17  CE1       57.9430  -14.6040   19.6670 C.ar    3  HIS3        0.1986
     18  NE2       57.0270  -14.5130   18.7210 N.ar    3  HIS3       -0.2212
     19  N         60.0650   -8.2250   14.1080 N.3    85  ARG85      -0.1245
     20  CA        58.8750   -8.4620   14.9210 C.3    85  ARG85       0.1563
     21  C         57.7230   -7.6130   14.3650 C.2    85  ARG85       0.2260
     22  O         57.8670   -6.3930   14.1640 O.2    85  ARG85      -0.2867
     23  CB        59.1310   -8.1370   16.3980 C.3    85  ARG85       0.0307
     24  CG        57.8700   -8.2020   17.2870 C.3    85  ARG85       0.0489
     25  CD        58.1680   -8.1760   18.7980 C.3    85  ARG85       0.2205
     26  NE        59.1410   -7.1440   19.1740 N.pl3  85  ARG85      -0.0865
     27  CZ        58.8310   -5.9370   19.6520 C.cat  85  ARG85       0.5346
     28  NH1       59.8050   -5.0880   19.9420 N.pl3  85  ARG85       0.1354
     29  NH2       57.5610   -5.5680   19.8440 N.pl3  85  ARG85       0.1354
     30  N         52.9940   -9.7380   16.8970 N.3    89  GLY89      -0.1225
     31  CA        53.9440  -10.3870   17.8080 C.3    89  GLY89       0.1811
     32  C         54.7640  -11.4930   17.1570 C.2    89  GLY89       0.2280
     33  O         55.6450  -12.1010   17.7940 O.2    89  GLY89      -0.2866
     34  N         57.4470  -13.3090   14.5280 N.3    91  LEU91      -0.1245
     35  CA        58.7960  -12.9970   14.1020 C.3    91  LEU91       0.1561
     36  C         58.9770  -13.4860   12.6840 C.2    91  LEU91       0.2260
     37  O         58.3870  -14.5010   12.2810 O.2    91  LEU91      -0.2867
     38  CB        59.8280  -13.6340   15.0280 C.3    91  LEU91       0.0270
     39  CG        59.7830  -13.1950   16.4930 C.3    91  LEU91       0.0019
     40  CD1       60.5610  -14.1560   17.3540 C.3    91  LEU91       0.0001
     41  CD2       60.3590  -11.8100   16.6230 C.3    91  LEU91       0.0001
     42  N         65.6530  -17.5600   17.2600 N.3   142  LEU142     -0.1245
     43  CA        64.5460  -16.7150   17.7000 C.3   142  LEU142      0.1561
     44  C         63.3620  -17.5420   18.2230 C.2   142  LEU142      0.2260
     45  O         62.7100  -17.1610   19.2010 O.2   142  LEU142     -0.2867
     46  CB        64.0960  -15.7770   16.5820 C.3   142  LEU142      0.0270
     47  CG        65.1000  -14.7240   16.0940 C.3   142  LEU142      0.0019
     48  CD1       64.5720  -14.0540   14.8400 C.3   142  LEU142      0.0001
     49  CD2       65.4040  -13.6800   17.1680 C.3   142  LEU142      0.0001
     50  N         63.9800  -18.6230   21.6760 N.3   145  GLY145     -0.1210
     51  CA        63.8480  -17.5390   22.6430 C.3   145  GLY145      0.1956
     52  C         64.9400  -16.4850   22.6520 C.2   145  GLY145      0.2613
     53  O         64.9300  -15.6100   23.5080 O.2   145  GLY145     -0.2717
     54  N         65.8810  -16.5540   21.7140 N.am  146  THR146     -0.1938
     55  CA        66.9090  -15.5200   21.6050 C.3   146  THR146      0.2028
     56  C         66.2640  -14.1560   21.3740 C.2   146  THR146      0.2642
     57  O         65.3690  -14.0070   20.5310 O.2   146  THR146     -0.2714
     58  CB        67.8930  -15.7840   20.4350 C.3   146  THR146      0.1808
     59  OG1       68.4320  -17.1010   20.5460 O.3   146  THR146     -0.2208
     60  CG2       69.0250  -14.7870   20.4470 C.3   146  THR146      0.0379
     61  N         66.7430  -13.1720   22.1300 N.am  147  ASP147     -0.1957
     62  CA        66.3660  -11.7780   21.9580 C.3   147  ASP147      0.1840
     63  C         66.6950  -11.2970   20.5330 C.2   147  ASP147      0.2621
     64  O         67.7600  -11.5980   19.9930 O.2   147  ASP147     -0.2715
     65  CB        67.0700  -10.9410   23.0290 C.3   147  ASP147      0.1450
     66  CG        66.7560   -9.4540   22.9320 C.2   147  ASP147      0.3671
     67  OD1       65.6780   -9.0570   22.3980 O.co2 147  ASP147     -0.2456
     68  OD2       67.6150   -8.6600   23.4040 O.co2 147  ASP147     -0.2456
     69  N         65.7590  -10.5740   19.9260 N.am  148  LEU148     -0.1977
     70  CA        65.9060  -10.0500   18.5660 C.3   148  LEU148      0.1596
     71  C         67.1000   -9.0890   18.4460 C.2   148  LEU148      0.2287
     72  O         67.7240   -8.9870   17.3810 O.2   148  LEU148     -0.2864
     73  CB        64.5870   -9.3920   18.1140 C.3   148  LEU148      0.0297
     74  CG        64.4300   -8.5510   16.8300 C.3   148  LEU148      0.0022
     75  CD1       64.8600   -9.2710   15.5560 C.3   148  LEU148      0.0001
     76  CD2       62.9930   -8.0330   16.6780 C.3   148  LEU148      0.0001
@<TRIPOS>BOND
     1    37    36    2
     2    36    35    1
     3    35    34    1
     4    35    38    1
     5    19    20    1
     6    22    21    2
     7    21    20    1
     8    48    47    1
     9    20    23    1
    10    38    39    1
    11    75    74    1
    12    47    46    1
    13    47    49    1
    14    23    24    1
    15    39    41    1
    16    39    40    1
    17    46    43    1
    18    76    74    1
    19    74    73    1
    20    30    31    1
    21    32    33    2
    22    32    31    1
    23    42    43    1
    24    24    25    1
    25    72    71    2
    26    12    11    2
    27    43    44    1
    28    16    14   ar
    29    16    18   ar
    30    73    70    1
    31    13    14    1
    32    13    10    1
    33    44    45    2
    34    71    70    1
    35    14    15   ar
    36    70    69    1
    37    11    10    1
    38    18    17   ar
    39    25    26    1
    40    26    27    2
    41    10     9    1
    42    15    17   ar
    43    27    29    1
    44    27    28    1
    45    69    63   am
    46    64    63    2
    47    58    60    1
    48    58    59    1
    49    58    55    1
    50    57    56    2
    51    63    62    1
    52    56    55    1
    53    56    61   am
    54    55    54    1
    55     4     3    2
    56    50    51    1
    57    54    52   am
    58    62    61    1
    59    62    65    1
    60    67    66   ar
    61    51    52    1
    62    52    53    2
    63     3     2    1
    64    66    65    1
    65    66    68   ar
    66     5     6    1
    67     5     2    1
    68     6     7    1
    69     2     1    1
    70     7     8    1
