@<TRIPOS>MOLECULE
tmp/2q6iA00.pdb
 101 102 0 0 0
SMALL
GASTEIGER

@<TRIPOS>ATOM
      1  N         62.5160  -21.3590   -2.3280 N.3    11  ASP11      -0.1225
      2  CA        62.4050  -21.7430   -3.7360 C.3    11  ASP11       0.1805
      3  C         63.2590  -22.9620   -4.0850 C.2    11  ASP11       0.2597
      4  O         63.5740  -23.1660   -5.2520 O.2    11  ASP11      -0.2718
      5  CB        62.7850  -20.5630   -4.6480 C.3    11  ASP11       0.1424
      6  CG        64.2000  -20.0620   -4.4130 C.2    11  ASP11       0.3668
      7  OD1       64.7950  -20.3560   -3.3390 O.co2  11  ASP11      -0.2456
      8  OD2       64.7150  -19.3520   -5.3010 O.co2  11  ASP11      -0.2456
      9  N         63.6370  -23.7640   -3.0860 N.am   12  VAL12      -0.1980
     10  CA        64.5710  -24.8790   -3.3220 C.3    12  VAL12       0.1595
     11  C         63.8570  -26.1780   -3.6590 C.2    12  VAL12       0.2287
     12  O         64.4990  -27.1880   -3.9380 O.2    12  VAL12      -0.2864
     13  CB        65.5940  -25.1130   -2.1360 C.3    12  VAL12       0.0276
     14  CG1       66.4250  -23.8380   -1.8230 C.3    12  VAL12       0.0022
     15  CG2       64.8940  -25.6740   -0.8930 C.3    12  VAL12       0.0022
     16  N         64.1890  -18.0620   -7.8530 N.3    45  PHE45      -0.1241
     17  CA        64.6270  -16.6470   -7.8270 C.3    45  PHE45       0.1605
     18  C         63.4710  -15.6570   -7.7420 C.2    45  PHE45       0.2264
     19  O         63.6820  -14.4560   -7.5500 O.2    45  PHE45      -0.2867
     20  CB        65.5150  -16.2990   -9.0350 C.3    45  PHE45       0.0534
     21  CG        66.3380  -17.4590   -9.5650 C.ar   45  PHE45      -0.0203
     22  CD1       67.3050  -18.0800   -8.7690 C.ar   45  PHE45      -0.0042
     23  CD2       66.1570  -17.9110  -10.8720 C.ar   45  PHE45      -0.0042
     24  CE1       68.0700  -19.1430   -9.2650 C.ar   45  PHE45      -0.0003
     25  CE2       66.9110  -18.9650  -11.3710 C.ar   45  PHE45      -0.0003
     26  CZ        67.8690  -19.5830  -10.5660 C.ar   45  PHE45      -0.0000
     27  N         63.1130  -17.8070    2.5990 N.3    70  TYR70      -0.1241
     28  CA        64.2110  -17.3620    1.7600 C.3    70  TYR70       0.1605
     29  C         64.0420  -17.6770    0.2800 C.2    70  TYR70       0.2264
     30  O         63.7980  -18.8210   -0.1000 O.2    70  TYR70      -0.2867
     31  CB        65.5790  -17.8230    2.3020 C.3    70  TYR70       0.0534
     32  CG        65.8910  -19.2920    2.1780 C.ar   70  TYR70      -0.0201
     33  CD1       65.6340  -20.1710    3.2280 C.ar   70  TYR70      -0.0009
     34  CD2       66.4780  -19.8060    1.0120 C.ar   70  TYR70      -0.0009
     35  CE1       65.9530  -21.5340    3.1240 C.ar   70  TYR70       0.0417
     36  CE2       66.7890  -21.1700    0.8900 C.ar   70  TYR70       0.0417
     37  CZ        66.5280  -22.0220    1.9510 C.ar   70  TYR70       0.1957
     38  OH        66.8400  -23.3630    1.8310 O.3    70  TYR70      -0.2866
     39  N         66.7010  -16.2560   -2.3310 N.3    72  TYR72      -0.1228
     40  CA        67.9240  -15.4960   -2.0260 C.3    72  TYR72       0.1721
     41  C         68.9950  -15.6090   -3.1240 C.2    72  TYR72       0.2437
     42  O         70.0930  -16.1100   -2.8580 O.2    72  TYR72      -0.2733
     43  CB        68.5040  -16.0210   -0.7010 C.3    72  TYR72       0.0547
     44  CG        69.1990  -15.0240    0.2090 C.ar   72  TYR72      -0.0200
     45  CD1       69.2820  -15.2670    1.5860 C.ar   72  TYR72      -0.0009
     46  CD2       69.7740  -13.8390   -0.2870 C.ar   72  TYR72      -0.0009
     47  CE1       69.9060  -14.3640    2.4490 C.ar   72  TYR72       0.0417
     48  CE2       70.4110  -12.9170    0.5750 C.ar   72  TYR72       0.0417
     49  CZ        70.4740  -13.1960    1.9420 C.ar   72  TYR72       0.1957
     50  OH        71.0930  -12.3080    2.8080 O.3    72  TYR72      -0.2866
     51  N         68.6970  -15.1620   -4.3630 N.am   73  PRO73      -0.2729
     52  CA        69.7700  -15.2350   -5.3700 C.3    73  PRO73       0.1401
     53  C         70.9430  -14.2880   -5.0510 C.2    73  PRO73       0.2269
     54  O         72.0090  -14.3640   -5.6700 O.2    73  PRO73      -0.2865
     55  CB        69.0680  -14.8330   -6.6720 C.3    73  PRO73       0.0296
     56  CG        67.8610  -14.0630   -6.2530 C.3    73  PRO73       0.0237
     57  CD        67.4460  -14.6020   -4.9130 C.3    73  PRO73       0.0939
     58  N         72.4450  -14.3440   -2.2100 N.3    75  THR75      -0.1218
     59  CA        73.1910  -15.0040   -1.1360 C.3    75  THR75       0.1862
     60  C         74.6970  -14.7900   -1.2850 C.2    75  THR75       0.2287
     61  O         75.2380  -14.8950   -2.3770 O.2    75  THR75      -0.2866
     62  CB        72.8550  -16.5250   -1.0270 C.3    75  THR75       0.1770
     63  OG1       73.7460  -17.1580   -0.0960 O.3    75  THR75      -0.2211
     64  CG2       72.9510  -17.2330   -2.3890 C.3    75  THR75       0.0375
     65  N         77.0810  -19.5980   -0.6570 N.3   128  THR128     -0.1203
     66  CA        75.9800  -19.9030   -1.5840 C.3   128  THR128      0.1994
     67  C         74.7260  -20.4720   -0.9130 C.2   128  THR128      0.2618
     68  O         73.7620  -20.8270   -1.5980 O.2   128  THR128     -0.2717
     69  CB        76.4270  -20.8320   -2.7290 C.3   128  THR128      0.1784
     70  OG1       76.9810  -22.0350   -2.1820 O.3   128  THR128     -0.2211
     71  CG2       77.4670  -20.1350   -3.5830 C.3   128  THR128      0.0376
     72  N         74.7300  -20.5580    0.4160 N.am  129  TRP129     -0.1961
     73  CA        73.5390  -20.9930    1.1290 C.3   129  TRP129      0.1771
     74  C         73.2530  -20.2410    2.4290 C.2   129  TRP129      0.2620
     75  O         73.2000  -20.8390    3.5040 O.2   129  TRP129     -0.2715
     76  CB        73.5820  -22.4860    1.3960 C.3   129  TRP129      0.0590
     77  CG        72.2290  -23.0910    1.4380 C.ar  129  TRP129      0.0006
     78  CD1       71.0220  -22.4390    1.3510 C.ar  129  TRP129      0.0946
     79  CD2       71.9270  -24.4730    1.5940 C.ar  129  TRP129      0.0152
     80  NE1       69.9890  -23.3420    1.4230 N.ar  129  TRP129     -0.2442
     81  CE2       70.5150  -24.5970    1.5830 C.ar  129  TRP129      0.0810
     82  CE3       72.7100  -25.6250    1.7430 C.ar  129  TRP129      0.0012
     83  CZ2       69.8750  -25.8230    1.7240 C.ar  129  TRP129      0.0191
     84  CZ3       72.0700  -26.8460    1.8700 C.ar  129  TRP129      0.0001
     85  CH2       70.6670  -26.9320    1.8660 C.ar  129  TRP129      0.0015
     86  N         73.0490  -18.9300    2.3030 N.am  130  TYR130     -0.1960
     87  CA        72.5680  -18.0890    3.3870 C.3   130  TYR130      0.1771
     88  C         71.2090  -18.5630    3.9060 C.2   130  TYR130      0.2620
     89  O         70.9200  -18.4390    5.1030 O.2   130  TYR130     -0.2715
     90  CB        72.4840  -16.6320    2.9230 C.3   130  TYR130      0.0574
     91  CG        73.7740  -15.8480    3.0640 C.ar  130  TYR130     -0.0198
     92  CD1       75.0040  -16.5000    3.1500 C.ar  130  TYR130     -0.0009
     93  CD2       73.7640  -14.4600    3.0830 C.ar  130  TYR130     -0.0009
     94  CE1       76.1830  -15.7960    3.2860 C.ar  130  TYR130      0.0417
     95  CE2       74.9390  -13.7430    3.2020 C.ar  130  TYR130      0.0417
     96  CZ        76.1450  -14.4180    3.3070 C.ar  130  TYR130      0.1957
     97  OH        77.3240  -13.7250    3.4290 O.3   130  TYR130     -0.2866
     98  N         70.3870  -19.1060    3.0020 N.am  131  GLY131     -0.1954
     99  CA        69.1100  -19.7120    3.3700 C.3   131  GLY131      0.1869
    100  C         69.2170  -20.6160    4.5880 C.2   131  GLY131      0.2309
    101  O         68.4840  -20.4520    5.5620 O.2   131  GLY131     -0.2863
@<TRIPOS>BOND
     1    25    23   ar
     2    25    26   ar
     3    23    21   ar
     4    26    24   ar
     5    21    20    1
     6    21    22   ar
     7    24    22   ar
     8    20    17    1
     9    16    17    1
    10    17    18    1
    11    18    19    2
    12    55    56    1
    13    55    52    1
    14    56    57    1
    15    54    53    2
    16    52    53    1
    17    52    51    1
    18     8     6   ar
    19     4     3    2
    20    57    51    1
    21     5     6    1
    22     5     2    1
    23     6     7   ar
    24    51    41   am
    25     3     2    1
    26     3     9   am
    27    12    11    2
    28     2     1    1
    29    11    10    1
    30    71    69    1
    31    10     9    1
    32    10    13    1
    33    41    42    2
    34    41    40    1
    35    69    70    1
    36    69    66    1
    37    64    62    1
    38    61    60    2
    39    39    40    1
    40    58    59    1
    41    13    14    1
    42    13    15    1
    43    40    43    1
    44    68    67    2
    45    66    67    1
    46    66    65    1
    47    60    59    1
    48    59    62    1
    49    62    63    1
    50    67    72   am
    51    43    44    1
    52    46    44   ar
    53    46    48   ar
    54    30    29    2
    55    44    45   ar
    56    29    28    1
    57    72    73    1
    58    48    49   ar
    59    36    34   ar
    60    36    37   ar
    61    34    32   ar
    62    73    76    1
    63    73    74    1
    64    78    80   ar
    65    78    77   ar
    66    76    77    1
    67    80    81   ar
    68    77    79   ar
    69    81    79   ar
    70    81    83   ar
    71    45    47   ar
    72    79    82   ar
    73    83    85   ar
    74    82    84   ar
    75    28    31    1
    76    28    27    1
    77    38    37    1
    78    85    84   ar
    79    49    47   ar
    80    49    50    1
    81    37    35   ar
    82    32    31    1
    83    32    33   ar
    84    86    74   am
    85    86    87    1
    86    74    75    2
    87    90    91    1
    88    90    87    1
    89    98    99    1
    90    98    88   am
    91    91    93   ar
    92    91    92   ar
    93    93    95   ar
    94    35    33   ar
    95    92    94   ar
    96    95    96   ar
    97    94    96   ar
    98    96    97    1
    99    99   100    1
   100    87    88    1
   101    88    89    2
   102   100   101    2
