@<TRIPOS>MOLECULE
tmp/2q6jB00.pdb
 112 103 0 0 0
SMALL
GASTEIGER

@<TRIPOS>ATOM
      1  N         16.6290    5.2370   40.6740 N.3    42  LEU42      -0.1245
      2  CA        15.9300    4.5770   39.5590 C.3    42  LEU42       0.1561
      3  C         15.9520    3.0440   39.6220 C.2    42  LEU42       0.2260
      4  O         14.9320    2.4170   39.3570 O.2    42  LEU42      -0.2867
      5  CB        16.4600    5.0310   38.1890 C.3    42  LEU42       0.0270
      6  CG        16.6730    6.5030   37.8170 C.3    42  LEU42       0.0019
      7  CD1       17.0110    6.6210   36.3410 C.3    42  LEU42       0.0001
      8  CD2       15.4660    7.3500   38.1460 C.3    42  LEU42       0.0001
      9  N         13.5710    2.2880   42.3760 N.3    45  LEU45      -0.1231
     10  CA        12.2310    2.4900   41.8140 C.3    45  LEU45       0.1693
     11  C         11.8210    1.3250   40.9070 C.2    45  LEU45       0.2591
     12  O         10.8830    0.5890   41.2050 O.2    45  LEU45      -0.2718
     13  CB        12.1910    3.8070   41.0420 C.3    45  LEU45       0.0284
     14  CG        10.9550    4.1920   40.2390 C.3    45  LEU45       0.0019
     15  CD1        9.7180    4.0530   41.1120 C.3    45  LEU45       0.0001
     16  CD2       11.0940    5.6330   39.6860 C.3    45  LEU45       0.0001
     17  N         12.5620    1.1750   39.8130 N.am   46  ALA46      -0.1980
     18  CA        12.3100    0.1690   38.8040 C.3    46  ALA46       0.1597
     19  C         12.3930   -1.2430   39.3620 C.2    46  ALA46       0.2287
     20  O         11.8220   -2.1720   38.7920 O.2    46  ALA46      -0.2864
     21  CB        13.2880    0.3330   37.6620 C.3    46  ALA46       0.0319
     22  N          8.8850   -1.5740   40.8420 N.3    49  GLU49      -0.1245
     23  CA         7.9520   -1.5350   39.7200 C.3    49  GLU49       0.1567
     24  C          7.9690   -2.8390   38.9520 C.2    49  GLU49       0.2260
     25  O          6.9390   -3.2980   38.4800 O.2    49  GLU49      -0.2867
     26  CB         8.2750   -0.3740   38.7850 C.3    49  GLU49       0.0388
     27  CG         7.7280    0.9480   39.2500 C.3    49  GLU49       0.1160
     28  CD         8.2340    2.1110   38.4160 C.2    49  GLU49       0.3649
     29  OE1        9.4110    2.0500   37.9750 O.co2  49  GLU49      -0.2457
     30  OE2        7.4670    3.0930   38.2150 O.co2  49  GLU49      -0.2457
     31  N         11.6480   -2.8430   30.0470 N.3    80  LEU80      -0.1245
     32  CA        12.0930   -1.4430   30.0400 C.3    80  LEU80       0.1561
     33  C         11.1150   -0.5980   29.2440 C.2    80  LEU80       0.2260
     34  O         10.7440    0.4830   29.6730 O.2    80  LEU80      -0.2867
     35  CB        13.5160   -1.2990   29.4970 C.3    80  LEU80       0.0270
     36  CG        14.1660    0.0810   29.5750 C.3    80  LEU80       0.0019
     37  CD1       13.8850    0.7990   30.9170 C.3    80  LEU80       0.0001
     38  CD2       15.6640   -0.0220   29.3050 C.3    80  LEU80       0.0001
     39  N          8.2130    0.1210   31.3590 N.3    83  LEU83      -0.1231
     40  CA         8.5700    1.0660   32.3780 C.3    83  LEU83       0.1693
     41  C          8.4460    2.4390   31.7500 C.2    83  LEU83       0.2591
     42  O          7.8460    3.3650   32.3260 O.2    83  LEU83      -0.2718
     43  CB         9.9950    0.8060   32.8960 C.3    83  LEU83       0.0284
     44  CG        10.1950   -0.3050   33.9520 C.3    83  LEU83       0.0019
     45  CD1       11.6330   -0.3740   34.4440 C.3    83  LEU83       0.0001
     46  CD2        9.2390   -0.1820   35.1350 C.3    83  LEU83       0.0001
     47  N          8.9830    2.5400   30.5410 N.am   84  MET84      -0.1979
     48  CA         9.0690    3.7960   29.8180 C.3    84  MET84       0.1605
     49  C          7.7450    4.3450   29.3130 C.2    84  MET84       0.2287
     50  O          7.5460    5.5640   29.3240 O.2    84  MET84      -0.2864
     51  CB        10.0520    3.6700   28.6670 C.3    84  MET84       0.0413
     52  CG        11.4820    3.5690   29.1290 C.3    84  MET84       0.0598
     53  SD        12.5070    3.3810   27.6780 S.3    84  MET84      -0.1393
     54  CE        14.1640    3.6220   28.3340 C.3    84  MET84       0.0692
     55  N          6.0870    5.6610   32.5260 N.3    87  LEU87      -0.1245
     56  CA         6.7350    6.8940   32.9340 C.3    87  LEU87       0.1561
     57  C          6.2980    8.0660   32.0580 C.2    87  LEU87       0.2260
     58  O          6.1140    9.1660   32.5640 O.2    87  LEU87      -0.2867
     59  CB         8.2590    6.7350   32.8750 C.3    87  LEU87       0.0270
     60  CG         9.0670    8.0270   33.0280 C.3    87  LEU87       0.0019
     61  CD1        8.9690    8.5370   34.4330 C.3    87  LEU87       0.0001
     62  CD2       10.5200    7.8040   32.6320 C.3    87  LEU87       0.0001
     63  N          9.2570   10.6300   37.2930 N.3   100  PHE100     -0.1241
     64  CA         9.6860    9.3070   37.6970 C.3   100  PHE100      0.1605
     65  C          8.7530    8.8390   38.8160 C.2   100  PHE100      0.2264
     66  O          7.9280    7.9530   38.5940 O.2   100  PHE100     -0.2867
     67  CB        11.1680    9.2940   38.0690 C.3   100  PHE100      0.0534
     68  CG        12.0810    9.2620   36.8710 C.ar  100  PHE100     -0.0203
     69  CD1       12.4030    8.0490   36.2530 C.ar  100  PHE100     -0.0042
     70  CD2       12.6020   10.4470   36.3390 C.ar  100  PHE100     -0.0042
     71  CE1       13.2410    8.0250   35.1220 C.ar  100  PHE100     -0.0003
     72  CE2       13.4450   10.4370   35.2150 C.ar  100  PHE100     -0.0003
     73  CZ        13.7620    9.2400   34.6070 C.ar  100  PHE100     -0.0000
     74  N         22.2380    9.6320   29.3740 N.3   117  MET117     -0.1245
     75  CA        20.9010    9.7240   29.8970 C.3   117  MET117      0.1570
     76  C         20.1360   10.8480   29.2100 C.2   117  MET117      0.2261
     77  O         19.0500   10.6190   28.6870 O.2   117  MET117     -0.2867
     78  CB        20.9210    9.9170   31.4110 C.3   117  MET117      0.0387
     79  CG        19.5310    9.9210   31.9910 C.3   117  MET117      0.0595
     80  SD        19.4180    9.8330   33.7720 S.3   117  MET117     -0.1393
     81  CE        20.2770    8.3050   34.1070 C.3   117  MET117      0.0692
     82  N         18.2590   10.2130   26.0410 N.3   120  ILE120     -0.1231
     83  CA        17.0480    9.4070   26.2090 C.3   120  ILE120      0.1692
     84  C         15.9430   10.2440   26.8530 C.2   120  ILE120      0.2592
     85  O         14.7590   10.1150   26.5140 O.2   120  ILE120     -0.2718
     86  CB        17.3250    8.1600   27.0680 C.3   120  ILE120      0.0266
     87  CG1       18.5200    7.3870   26.5080 C.3   120  ILE120      0.0019
     88  CG2       16.0740    7.2930   27.1720 C.3   120  ILE120      0.0020
     89  CD1       19.0240    6.3240   27.4310 C.3   120  ILE120      0.0001
     90  N         16.3580   11.0980   27.7860 N.am  121  PHE121     -0.1976
     91  CA        15.5060   12.1160   28.3810 C.3   121  PHE121      0.1639
     92  C         14.7340   12.9200   27.3410 C.2   121  PHE121      0.2290
     93  O         13.5110   13.0700   27.4540 O.2   121  PHE121     -0.2864
     94  CB        16.3550   13.0740   29.2120 C.3   121  PHE121      0.0560
     95  CG        16.1720   12.9280   30.6900 C.ar  121  PHE121     -0.0200
     96  CD1       15.6090   13.9650   31.4320 C.ar  121  PHE121     -0.0042
     97  CD2       16.5580   11.7560   31.3450 C.ar  121  PHE121     -0.0042
     98  CE1       15.4370   13.8510   32.8040 C.ar  121  PHE121     -0.0003
     99  CE2       16.3870   11.6300   32.7180 C.ar  121  PHE121     -0.0003
    100  CZ        15.8270   12.6930   33.4510 C.ar  121  PHE121     -0.0000
    101  N         12.0790   10.6550   25.5910 N.3   124  LEU124     -0.1245
    102  CA        10.9410   10.5020   26.4970 C.3   124  LEU124      0.1561
    103  C         10.0780   11.7520   26.5650 C.2   124  LEU124      0.2260
    104  O          8.8630   11.6770   26.4240 O.2   124  LEU124     -0.2867
    105  CB        11.4240   10.1500   27.9060 C.3   124  LEU124      0.0270
    106  CG        11.9740    8.7350   28.0610 C.3   124  LEU124      0.0019
    107  CD1       12.8640    8.6430   29.2510 C.3   124  LEU124      0.0001
    108  CD2       10.8410    7.7600   28.1710 C.3   124  LEU124      0.0001
    109  N         18.5660    2.7930   26.3190 N.3   206  GLY206     -0.1225
    110  CA        18.7540    2.5290   27.7330 C.3   206  GLY206      0.1811
    111  C         19.4350    1.2000   28.0260 C.2   206  GLY206      0.2280
    112  O         20.3160    1.1450   28.8750 O.2   206  GLY206     -0.2866
@<TRIPOS>BOND
     1   101   102    1
     2    82    83    1
     3    83    84    1
     4    83    86    1
     5   109   110    1
     6   104   103    2
     7   102   103    1
     8   102   105    1
     9    87    86    1
    10    87    89    1
    11    85    84    2
    12    84    90   am
    13    86    88    1
    14    92    93    2
    15    92    91    1
    16    53    54    1
    17    53    52    1
    18   110   111    1
    19    90    91    1
    20   105   106    1
    21   111   112    2
    22   106   108    1
    23   106   107    1
    24    91    94    1
    25    51    52    1
    26    51    48    1
    27    77    76    2
    28    76    75    1
    29    94    95    1
    30    33    34    2
    31    33    32    1
    32    38    36    1
    33    49    50    2
    34    49    48    1
    35    74    75    1
    36    35    36    1
    37    35    32    1
    38    36    37    1
    39    48    47    1
    40    75    78    1
    41    32    31    1
    42    47    41   am
    43    95    97   ar
    44    95    96   ar
    45    97    99   ar
    46    39    40    1
    47    78    79    1
    48    96    98   ar
    49    41    42    2
    50    41    40    1
    51    79    80    1
    52    57    58    2
    53    57    56    1
    54    40    43    1
    55    55    56    1
    56    62    60    1
    57    99   100   ar
    58    98   100   ar
    59    59    56    1
    60    59    60    1
    61    43    44    1
    62    60    61    1
    63    80    81    1
    64    44    45    1
    65    44    46    1
    66    73    71   ar
    67    73    72   ar
    68    71    69   ar
    69    72    70   ar
    70    69    68   ar
    71    70    68   ar
    72     7     6    1
    73    68    67    1
    74    63    64    1
    75    21    18    1
    76    64    67    1
    77    64    65    1
    78     6     8    1
    79     6     5    1
    80    29    28   ar
    81     5     2    1
    82    30    28   ar
    83    28    27    1
    84    25    24    2
    85    66    65    2
    86    26    27    1
    87    26    23    1
    88    20    19    2
    89    18    19    1
    90    18    17    1
    91    24    23    1
    92     4     3    2
    93     2     3    1
    94     2     1    1
    95    16    14    1
    96    23    22    1
    97    17    11   am
    98    14    13    1
    99    14    15    1
   100    11    12    2
   101    11    10    1
   102    13    10    1
   103    10     9    1
