@<TRIPOS>MOLECULE
tmp/2q6nG01.pdb
 115 107 0 0 0
SMALL
GASTEIGER

@<TRIPOS>ATOM
      1  N         52.8180   -4.2630   86.4510 N.3    74  ILE74      -0.1245
      2  CA        53.3160   -4.7480   87.7300 C.3    74  ILE74       0.1561
      3  C         52.4840   -4.0320   88.7990 C.2    74  ILE74       0.2260
      4  O         52.7880   -2.9050   89.1950 O.2    74  ILE74      -0.2867
      5  CB        54.8150   -4.4180   87.9160 C.3    74  ILE74       0.0252
      6  CG1       55.6270   -4.9450   86.7250 C.3    74  ILE74       0.0019
      7  CG2       55.3270   -5.0420   89.2060 C.3    74  ILE74       0.0019
      8  CD1       55.6520   -6.4540   86.6000 C.3    74  ILE74       0.0001
      9  N         54.1530   -1.2220   90.7480 N.3    77  VAL77      -0.1245
     10  CA        54.8090   -0.1040   90.0720 C.3    77  VAL77       0.1561
     11  C         54.0450    0.4270   88.8700 C.2    77  VAL77       0.2260
     12  O         54.5270    1.3140   88.1620 O.2    77  VAL77      -0.2867
     13  CB        56.2380   -0.4690   89.6080 C.3    77  VAL77       0.0252
     14  CG1       57.0690   -0.9300   90.7940 C.3    77  VAL77       0.0019
     15  CG2       56.1820   -1.5350   88.5340 C.3    77  VAL77       0.0019
     16  N         54.5510    4.3530   86.5360 N.3    81  PHE81      -0.1241
     17  CA        54.7470    4.4520   85.0970 C.3    81  PHE81       0.1605
     18  C         53.4630    4.7140   84.3350 C.2    81  PHE81       0.2264
     19  O         53.5060    5.1670   83.1920 O.2    81  PHE81      -0.2867
     20  CB        55.3940    3.1720   84.5720 C.3    81  PHE81       0.0534
     21  CG        56.8070    2.9810   85.0330 C.ar   81  PHE81      -0.0203
     22  CD1       57.8510    3.6610   84.4120 C.ar   81  PHE81      -0.0042
     23  CD2       57.0910    2.1560   86.1190 C.ar   81  PHE81      -0.0042
     24  CE1       59.1550    3.5260   84.8670 C.ar   81  PHE81      -0.0003
     25  CE2       58.3900    2.0150   86.5820 C.ar   81  PHE81      -0.0003
     26  CZ        59.4260    2.7010   85.9560 C.ar   81  PHE81      -0.0000
     27  N         60.0730    1.2830   79.3540 N.3    87  ILE87      -0.1231
     28  CA        59.9550   -0.1050   79.7760 C.3    87  ILE87       0.1692
     29  C         58.5320   -0.6460   79.7760 C.2    87  ILE87       0.2592
     30  O         58.3210   -1.8310   79.5050 O.2    87  ILE87      -0.2718
     31  CB        60.5500   -0.3230   81.1910 C.3    87  ILE87       0.0266
     32  CG1       62.0310    0.0420   81.2000 C.3    87  ILE87       0.0019
     33  CG2       60.4100   -1.7820   81.6050 C.3    87  ILE87       0.0020
     34  CD1       62.7320   -0.2970   82.5010 C.3    87  ILE87       0.0001
     35  N         57.5540    0.2020   80.0800 N.am   88  PHE88      -0.1976
     36  CA        56.1680   -0.2610   80.1210 C.3    88  PHE88       0.1639
     37  C         55.2760    0.2180   78.9780 C.2    88  PHE88       0.2290
     38  O         54.1110   -0.1730   78.8860 O.2    88  PHE88      -0.2864
     39  CB        55.5370    0.1130   81.4660 C.3    88  PHE88       0.0560
     40  CG        56.1250   -0.6230   82.6410 C.ar   88  PHE88      -0.0200
     41  CD1       55.6380   -0.4070   83.9220 C.ar   88  PHE88      -0.0042
     42  CD2       57.1580   -1.5380   82.4690 C.ar   88  PHE88      -0.0042
     43  CE1       56.1700   -1.0900   85.0140 C.ar   88  PHE88      -0.0003
     44  CE2       57.6950   -2.2250   83.5530 C.ar   88  PHE88      -0.0003
     45  CZ        57.2010   -2.0010   84.8260 C.ar   88  PHE88      -0.0000
     46  N         62.9260   -2.1620   95.0050 N.3   179  PHE179     -0.1241
     47  CA        62.9680   -3.4120   94.2500 C.3   179  PHE179      0.1605
     48  C         62.8140   -4.6150   95.1700 C.2   179  PHE179      0.2264
     49  O         62.4820   -5.7110   94.7210 O.2   179  PHE179     -0.2867
     50  CB        64.2830   -3.5250   93.4750 C.3   179  PHE179      0.0534
     51  CG        64.2960   -4.6300   92.4510 C.ar  179  PHE179     -0.0203
     52  CD1       63.3250   -4.6860   91.4540 C.ar  179  PHE179     -0.0042
     53  CD2       65.2960   -5.5970   92.4610 C.ar  179  PHE179     -0.0042
     54  CE1       63.3530   -5.6850   90.4800 C.ar  179  PHE179     -0.0003
     55  CE2       65.3330   -6.5980   91.4930 C.ar  179  PHE179     -0.0003
     56  CZ        64.3590   -6.6410   90.5000 C.ar  179  PHE179     -0.0000
     57  N         59.0650   -4.5940   95.7700 N.3   182  ILE182     -0.1245
     58  CA        58.4550   -4.9530   94.4990 C.3   182  ILE182      0.1561
     59  C         58.5420   -6.4700   94.3730 C.2   182  ILE182      0.2260
     60  O         57.8640   -7.0770   93.5490 O.2   182  ILE182     -0.2867
     61  CB        59.2090   -4.3200   93.3050 C.3   182  ILE182      0.0252
     62  CG1       59.2540   -2.7990   93.4540 C.3   182  ILE182      0.0019
     63  CG2       58.5190   -4.6850   91.9990 C.3   182  ILE182      0.0019
     64  CD1       60.0160   -2.1030   92.3400 C.3   182  ILE182      0.0001
     65  N         66.5850    3.3360   87.4050 N.3   270  PHE270     -0.1227
     66  CA        66.1680    2.3480   88.3960 C.3   270  PHE270      0.1736
     67  C         66.7060    0.9950   87.9640 C.2   270  PHE270      0.2595
     68  O         66.6950    0.0360   88.7300 O.2   270  PHE270     -0.2718
     69  CB        64.6380    2.2980   88.4820 C.3   270  PHE270      0.0547
     70  CG        64.0950    1.1000   89.2250 C.ar  270  PHE270     -0.0202
     71  CD1       64.4090    0.8820   90.5620 C.ar  270  PHE270     -0.0042
     72  CD2       63.2480    0.1980   88.5860 C.ar  270  PHE270     -0.0042
     73  CE1       63.8840   -0.2150   91.2530 C.ar  270  PHE270     -0.0003
     74  CE2       62.7190   -0.9000   89.2660 C.ar  270  PHE270     -0.0003
     75  CZ        63.0380   -1.1050   90.6020 C.ar  270  PHE270     -0.0000
     76  N         67.1830    0.9340   86.7260 N.am  271  ALA271     -0.1980
     77  CA        67.7240   -0.2970   86.1660 C.3   271  ALA271      0.1597
     78  C         69.2390   -0.2810   86.2130 C.2   271  ALA271      0.2287
     79  O         69.8590   -1.1560   86.8150 O.2   271  ALA271     -0.2864
     80  CB        67.2610   -0.4560   84.7340 C.3   271  ALA271      0.0319
     81  N         69.4530   -3.9520   89.1860 N.3   275  THR275     -0.1218
     82  CA        69.8200   -5.2440   88.6150 C.3   275  THR275      0.1862
     83  C         71.3220   -5.5360   88.5080 C.2   275  THR275      0.2287
     84  O         71.8210   -6.4630   89.1460 O.2   275  THR275     -0.2866
     85  CB        69.1740   -5.4440   87.2310 C.3   275  THR275      0.1770
     86  OG1       67.9810   -4.6560   87.1380 O.3   275  THR275     -0.2211
     87  CG2       68.7880   -6.9030   87.0480 C.3   275  THR275      0.0375
     88  N         65.5890  -12.4420   87.7370 N.3   336  ILE336     -0.1245
     89  CA        64.1900  -12.2860   87.3420 C.3   336  ILE336      0.1561
     90  C         63.4970  -13.6300   87.0990 C.2   336  ILE336      0.2260
     91  O         63.3780  -14.0830   85.9630 O.2   336  ILE336     -0.2867
     92  CB        64.0760  -11.4190   86.0630 C.3   336  ILE336      0.0252
     93  CG1       64.7660  -10.0660   86.2770 C.3   336  ILE336      0.0019
     94  CG2       62.6210  -11.1950   85.7210 C.3   336  ILE336      0.0019
     95  CD1       64.1270   -9.1910   87.3500 C.3   336  ILE336      0.0001
     96  N         59.8020   -9.8000   82.7700 N.3   340  VAL340     -0.1245
     97  CA        58.9400   -8.6660   83.0530 C.3   340  VAL340      0.1561
     98  C         57.7090   -8.8680   82.1820 C.2   340  VAL340      0.2260
     99  O         57.7870   -8.8090   80.9540 O.2   340  VAL340     -0.2867
    100  CB        59.6190   -7.3260   82.7050 C.3   340  VAL340      0.0252
    101  CG1       58.6620   -6.1760   82.9760 C.3   340  VAL340      0.0019
    102  CG2       60.8840   -7.1580   83.5350 C.3   340  VAL340      0.0019
    103  N         66.8460   -6.9210   77.0990 N.3   409  CYS409     -0.1235
    104  CA        67.3890   -5.7770   77.8170 C.3   409  CYS409      0.1677
    105  C         68.0130   -4.6890   76.9280 C.2   409  CYS409      0.2270
    106  O         68.8320   -4.9630   76.0440 O.2   409  CYS409     -0.2867
    107  CB        68.4110   -6.2460   78.8480 C.3   409  CYS409      0.0956
    108  SG        68.9970   -4.9160   79.9000 S.3   409  CYS409     -0.0801
    109  N         58.9780  -10.3780   91.3520 N.3   450  VAL450     -0.1245
    110  CA        59.3010   -9.8810   90.0180 C.3   450  VAL450      0.1561
    111  C         60.8010  -10.0180   89.7540 C.2   450  VAL450      0.2260
    112  O         61.2190  -10.4240   88.6690 O.2   450  VAL450     -0.2867
    113  CB        58.8870   -8.4000   89.8620 C.3   450  VAL450      0.0252
    114  CG1       59.6160   -7.5470   90.8860 C.3   450  VAL450      0.0019
    115  CG2       59.1840   -7.9190   88.4480 C.3   450  VAL450      0.0019
@<TRIPOS>BOND
     1   106   105    2
     2   105   104    1
     3   103   104    1
     4   104   107    1
     5   107   108    1
     6    38    37    2
     7    37    36    1
     8    27    28    1
     9    30    29    2
    10    28    29    1
    11    28    31    1
    12    29    35   am
    13    35    36    1
    14    36    39    1
    15    99    98    2
    16    31    32    1
    17    31    33    1
    18    32    34    1
    19    39    40    1
    20    98    97    1
    21    42    40   ar
    22    42    44   ar
    23    40    41   ar
    24   100   101    1
    25   100    97    1
    26   100   102    1
    27    96    97    1
    28    19    18    2
    29    44    45   ar
    30    41    43   ar
    31    18    17    1
    32    22    24   ar
    33    22    21   ar
    34    20    21    1
    35    20    17    1
    36    80    77    1
    37    45    43   ar
    38    24    26   ar
    39    21    23   ar
    40    17    16    1
    41    94    92    1
    42    26    25   ar
    43    91    90    2
    44    92    93    1
    45    92    89    1
    46    23    25   ar
    47    77    78    1
    48    77    76    1
    49    78    79    2
    50    93    95    1
    51     1     2    1
    52     8     6    1
    53     6     5    1
    54    76    67   am
    55    87    85    1
    56    90    89    1
    57    86    85    1
    58    85    82    1
    59    89    88    1
    60    65    66    1
    61     2     5    1
    62     2     3    1
    63     5     7    1
    64    67    66    1
    65    67    68    2
    66    12    11    2
    67    66    69    1
    68   115   113    1
    69    69    70    1
    70    83    82    1
    71    83    84    2
    72    15    13    1
    73    72    70   ar
    74    72    74   ar
    75    82    81    1
    76   112   111    2
    77     3     4    2
    78    11    10    1
    79    70    71   ar
    80    74    75   ar
    81    13    10    1
    82    13    14    1
    83   111   110    1
    84   113   110    1
    85   113   114    1
    86   110   109    1
    87    10     9    1
    88    54    56   ar
    89    54    52   ar
    90    56    55   ar
    91    71    73   ar
    92    75    73   ar
    93    52    51   ar
    94    55    53   ar
    95    63    61    1
    96    64    62    1
    97    51    53   ar
    98    51    50    1
    99    61    62    1
   100    61    58    1
   101    50    47    1
   102    60    59    2
   103    47    46    1
   104    47    48    1
   105    59    58    1
   106    58    57    1
   107    49    48    2
