@<TRIPOS>MOLECULE
tmp/2q6oA00.pdb
 121 118 0 0 0
SMALL
GASTEIGER

@<TRIPOS>ATOM
      1  N         -6.8810   75.1270    2.5480 N.3     9  ASP9       -0.1225
      2  CA        -6.8620   74.7510    3.9680 C.3     9  ASP9        0.1805
      3  C         -7.8030   73.5670    4.2320 C.2     9  ASP9        0.2597
      4  O         -8.1060   73.2660    5.3740 O.2     9  ASP9       -0.2718
      5  CB        -7.3120   75.9650    4.8420 C.3     9  ASP9        0.1424
      6  CG        -8.7670   76.3800    4.5980 C.2     9  ASP9        0.3668
      7  OD1       -9.3950   75.9940    3.5760 O.co2   9  ASP9       -0.2456
      8  OD2       -9.2850   77.1460    5.4180 O.co2   9  ASP9       -0.2456
      9  N         -8.2560   72.8710    3.1940 N.am   10  VAL10      -0.1980
     10  CA        -9.2110   71.7470    3.4400 C.3    10  VAL10       0.1595
     11  C         -8.5130   70.4540    3.9080 C.2    10  VAL10       0.2287
     12  O         -9.1730   69.4490    4.2620 O.2    10  VAL10      -0.2864
     13  CB       -10.1990   71.5120    2.2380 C.3    10  VAL10       0.0276
     14  CG1      -10.7750   72.8180    1.7900 C.3    10  VAL10       0.0022
     15  CG2       -9.5640   70.8180    1.0200 C.3    10  VAL10       0.0022
     16  N         -8.8290   63.8540    3.8270 N.3    14  ASP14      -0.1225
     17  CA       -10.0650   63.2750    3.3090 C.3    14  ASP14       0.1805
     18  C        -10.1620   63.5170    1.8310 C.2    14  ASP14       0.2598
     19  O         -9.1600   63.9410    1.2570 O.2    14  ASP14      -0.2718
     20  CB       -11.3170   63.6410    4.1280 C.3    14  ASP14       0.1424
     21  CG       -11.8040   65.0550    3.9270 C.2    14  ASP14       0.3668
     22  OD1      -11.2640   65.8490    3.1260 O.co2  14  ASP14      -0.2456
     23  OD2      -12.7800   65.3870    4.6200 O.co2  14  ASP14      -0.2456
     24  N        -11.2990   63.1830    1.2150 N.am   15  GLU15      -0.1965
     25  CA       -11.4730   63.3340   -0.2580 C.3    15  GLU15       0.1733
     26  C        -11.7140   64.7740   -0.7560 C.2    15  GLU15       0.2616
     27  O        -11.7630   64.9930   -1.9740 O.2    15  GLU15      -0.2715
     28  CB       -12.6450   62.4620   -0.7580 C.3    15  GLU15       0.0429
     29  CG       -14.0970   63.0380   -0.5460 C.3    15  GLU15       0.1163
     30  CD       -14.6630   63.0050    0.9210 C.2    15  GLU15       0.3649
     31  OE1      -13.9290   62.7020    1.8730 O.co2  15  GLU15      -0.2457
     32  OE2      -15.8840   63.3270    1.1040 O.co2  15  GLU15      -0.2457
     33  N        -11.8930   65.7510    0.1400 N.am   16  ALA16      -0.1977
     34  CA       -12.3050   67.1330   -0.3480 C.3    16  ALA16       0.1597
     35  C        -11.4290   67.7650   -1.4520 C.2    16  ALA16       0.2287
     36  O        -11.9190   68.1460   -2.5450 O.2    16  ALA16      -0.2864
     37  CB       -12.4710   68.1000    0.8080 C.3    16  ALA16       0.0319
     38  N        -11.9840   66.0160   -4.6940 N.3    19  LEU19      -0.1245
     39  CA       -13.2180   66.3780   -5.4540 C.3    19  LEU19       0.1561
     40  C        -13.0230   67.6140   -6.3320 C.2    19  LEU19       0.2260
     41  O        -13.4600   67.6570   -7.4900 O.2    19  LEU19      -0.2867
     42  CB       -14.4010   66.5110   -4.5340 C.3    19  LEU19       0.0270
     43  CG       -14.7920   65.2760   -3.7060 C.3    19  LEU19       0.0019
     44  CD1      -16.0000   65.5890   -2.8420 C.3    19  LEU19       0.0001
     45  CD2      -15.0610   64.1430   -4.6170 C.3    19  LEU19       0.0001
     46  N         -8.7860   78.3370    8.0390 N.3    43  PHE43      -0.1241
     47  CA        -9.1430   79.7710    7.9790 C.3    43  PHE43       0.1605
     48  C         -7.9190   80.7150    7.9860 C.2    43  PHE43       0.2264
     49  O         -8.1010   81.9310    8.1310 O.2    43  PHE43      -0.2867
     50  CB       -10.0730   80.2250    9.1300 C.3    43  PHE43       0.0534
     51  CG       -10.9190   79.1480    9.7180 C.ar   43  PHE43      -0.0203
     52  CD1      -11.8540   78.4500    8.9400 C.ar   43  PHE43      -0.0042
     53  CD2      -10.7960   78.8220   11.0740 C.ar   43  PHE43      -0.0042
     54  CE1      -12.6240   77.4420    9.4980 C.ar   43  PHE43      -0.0003
     55  CE2      -11.5920   77.8240   11.6250 C.ar   43  PHE43      -0.0003
     56  CZ       -12.4910   77.1350   10.8400 C.ar   43  PHE43      -0.0000
     57  N         -7.4430   78.5750   -2.3100 N.3    68  THR68      -0.1203
     58  CA        -8.6880   78.7190   -1.6150 C.3    68  THR68       0.1994
     59  C         -8.6460   78.3770   -0.1050 C.2    68  THR68       0.2618
     60  O         -8.4850   77.2480    0.3330 O.2    68  THR68      -0.2717
     61  CB        -9.8300   78.1220   -2.4690 C.3    68  THR68       0.1784
     62  OG1      -11.0330   78.9150   -2.3260 O.3    68  THR68      -0.2211
     63  CG2      -10.0340   76.6560   -2.2060 C.3    68  THR68       0.0376
     64  N         -8.6880   79.4320    0.6630 N.am   69  VAL69      -0.1965
     65  CA        -8.7690   79.3750    2.1090 C.3    69  VAL69       0.1727
     66  C         -9.8250   80.4420    2.1880 C.2    69  VAL69       0.2616
     67  O         -9.5390   81.5930    1.8930 O.2    69  VAL69      -0.2715
     68  CB        -7.4670   79.8650    2.7540 C.3    69  VAL69       0.0290
     69  CG1       -7.6370   79.9160    4.3230 C.3    69  VAL69       0.0023
     70  CG2       -6.3280   78.9530    2.3940 C.3    69  VAL69       0.0023
     71  N        -11.0600   80.0570    2.4950 N.am   70  TYR70      -0.1960
     72  CA       -12.1940   80.9570    2.1680 C.3    70  TYR70       0.1756
     73  C        -13.2810   80.8300    3.1640 C.2    70  TYR70       0.2461
     74  O        -14.4070   80.3490    2.8300 O.2    70  TYR70      -0.2730
     75  CB       -12.7410   80.4660    0.8270 C.3    70  TYR70       0.0574
     76  CG       -13.3660   81.4590   -0.0990 C.ar   70  TYR70      -0.0198
     77  CD1      -13.3840   81.1930   -1.4680 C.ar   70  TYR70      -0.0009
     78  CD2      -13.9930   82.6300    0.3640 C.ar   70  TYR70      -0.0009
     79  CE1      -14.0610   82.0420   -2.3570 C.ar   70  TYR70       0.0417
     80  CE2      -14.6240   83.5070   -0.5320 C.ar   70  TYR70       0.0417
     81  CZ       -14.6640   83.1770   -1.9130 C.ar   70  TYR70       0.1957
     82  OH       -15.2300   84.0140   -2.8770 O.3    70  TYR70      -0.2866
     83  N        -12.9750   81.2170    4.4190 N.am   71  PRO71      -0.2727
     84  CA       -13.9830   81.1470    5.4560 C.3    71  PRO71       0.1402
     85  C        -15.1070   82.1810    5.1820 C.2    71  PRO71       0.2269
     86  O        -16.2100   82.0720    5.7480 O.2    71  PRO71      -0.2865
     87  CB       -13.1860   81.4420    6.7170 C.3    71  PRO71       0.0296
     88  CG       -12.0620   82.3510    6.2740 C.3    71  PRO71       0.0237
     89  CD       -11.7090   81.8030    4.9090 C.3    71  PRO71       0.0939
     90  N        -16.7350   82.1480    2.4240 N.3    73  THR73      -0.1218
     91  CA       -17.4550   81.5050    1.3330 C.3    73  THR73       0.1862
     92  C        -18.9690   81.7440    1.4870 C.2    73  THR73       0.2287
     93  O        -19.4710   81.7550    2.6020 O.2    73  THR73      -0.2866
     94  CB       -17.1450   79.9670    1.3020 C.3    73  THR73       0.1770
     95  OG1      -17.8930   79.3620    0.2440 O.3    73  THR73      -0.2211
     96  CG2      -17.5120   79.2560    2.6510 C.3    73  THR73       0.0375
     97  N        -21.2480   76.9210    0.8820 N.3   126  THR126     -0.1203
     98  CA       -20.1270   76.5830    1.7550 C.3   126  THR126      0.1994
     99  C        -18.9230   76.0600    0.9820 C.2   126  THR126      0.2617
    100  O        -17.9340   75.7150    1.5880 O.2   126  THR126     -0.2717
    101  CB       -20.4710   75.5770    2.9440 C.3   126  THR126      0.1784
    102  OG1      -20.8350   74.2930    2.4570 O.3   126  THR126     -0.2211
    103  CG2      -21.5700   76.1000    3.8240 C.3   126  THR126      0.0376
    104  N        -18.9720   75.9940   -0.3470 N.am  127  TRP127     -0.1975
    105  CA       -17.7580   75.5570   -1.0660 C.3   127  TRP127      0.1640
    106  C        -17.4730   76.3350   -2.3500 C.2   127  TRP127      0.2290
    107  O        -17.2540   75.7730   -3.4050 O.2   127  TRP127     -0.2864
    108  CB       -17.7510   74.0100   -1.2690 C.3   127  TRP127      0.0576
    109  CG       -16.3180   73.3830   -1.3240 C.ar  127  TRP127      0.0006
    110  CD1      -15.1010   74.0390   -1.3050 C.ar  127  TRP127      0.0946
    111  CD2      -16.0250   72.0130   -1.4400 C.ar  127  TRP127      0.0152
    112  NE1      -14.0630   73.1300   -1.3830 N.ar  127  TRP127     -0.2442
    113  CE2      -14.6190   71.8730   -1.4590 C.ar  127  TRP127      0.0810
    114  CE3      -16.8300   70.8430   -1.5060 C.ar  127  TRP127      0.0012
    115  CZ2      -13.9920   70.6270   -1.5610 C.ar  127  TRP127      0.0191
    116  CZ3      -16.1790   69.5980   -1.6140 C.ar  127  TRP127      0.0001
    117  CH2      -14.7670   69.5150   -1.6440 C.ar  127  TRP127      0.0015
    118  N        -14.9430   77.4400   -2.8400 N.3   129  GLY129     -0.1225
    119  CA       -13.6030   76.8470   -3.1850 C.3   129  GLY129      0.1811
    120  C        -13.5900   75.8950   -4.3900 C.2   129  GLY129      0.2280
    121  O        -12.6680   75.9090   -5.2130 O.2   129  GLY129     -0.2866
@<TRIPOS>BOND
     1    41    40    2
     2    40    39    1
     3    39    38    1
     4    39    42    1
     5   121   120    2
     6    45    43    1
     7    42    43    1
     8   120   119    1
     9    43    44    1
    10   107   106    2
    11   119   118    1
    12    82    81    1
    13    36    35    2
    14    61    62    1
    15    61    63    1
    16    61    58    1
    17    79    81   ar
    18    79    77   ar
    19   106   105    1
    20    57    58    1
    21    27    26    2
    22    81    80   ar
    23   117   116   ar
    24   117   115   ar
    25    58    59    1
    26   116   114   ar
    27   115   113   ar
    28   114   111   ar
    29    77    76   ar
    30   113   111   ar
    31   113   112   ar
    32    35    34    1
    33   111   109   ar
    34   112   110   ar
    35   109   110   ar
    36   109   108    1
    37   108   105    1
    38   105   104    1
    39    28    29    1
    40    28    25    1
    41    26    25    1
    42    26    33   am
    43    29    30    1
    44    80    78   ar
    45    34    33    1
    46    34    37    1
    47   104    99   am
    48    25    24    1
    49    59    60    2
    50    59    64   am
    51    76    78   ar
    52    76    75    1
    53    95    94    1
    54    64    65    1
    55    75    72    1
    56    97    98    1
    57    30    32   ar
    58    30    31   ar
    59    99   100    2
    60    99    98    1
    61    15    13    1
    62    24    18   am
    63    19    18    2
    64    94    91    1
    65    94    96    1
    66    91    92    1
    67    91    90    1
    68    92    93    2
    69    98   101    1
    70    14    13    1
    71    18    17    1
    72    67    66    2
    73    65    66    1
    74    65    68    1
    75    72    71    1
    76    72    73    1
    77    66    71   am
    78    13    10    1
    79    70    68    1
    80   102   101    1
    81     1     2    1
    82    68    69    1
    83    74    73    2
    84   101   103    1
    85    22    21   ar
    86    73    83   am
    87     9    10    1
    88     9     3   am
    89    17    16    1
    90    17    20    1
    91    10    11    1
    92     7     6   ar
    93    11    12    2
    94    21    20    1
    95    21    23   ar
    96     2     3    1
    97     2     5    1
    98     3     4    2
    99    83    89    1
   100    83    84    1
   101     6     5    1
   102     6     8   ar
   103    89    88    1
   104    85    84    1
   105    85    86    2
   106    84    87    1
   107    88    87    1
   108    47    48    1
   109    47    46    1
   110    47    50    1
   111    48    49    2
   112    52    54   ar
   113    52    51   ar
   114    50    51    1
   115    54    56   ar
   116    51    53   ar
   117    56    55   ar
   118    53    55   ar
