@<TRIPOS>MOLECULE
tmp/2q6sB00.pdb
 182 169 0 0 0
SMALL
GASTEIGER

@<TRIPOS>ATOM
      1  N         36.4150   32.4580   53.5290 N.3    43  ILE43      -0.1245
      2  CA        37.3540   33.5640   53.4260 C.3    43  ILE43       0.1561
      3  C         36.5230   34.8290   53.4660 C.2    43  ILE43       0.2260
      4  O         35.8330   35.1370   52.5000 O.2    43  ILE43      -0.2867
      5  CB        38.1880   33.4930   52.1200 C.3    43  ILE43       0.0252
      6  CG1       39.0340   32.2100   52.1110 C.3    43  ILE43       0.0019
      7  CG2       39.0030   34.7700   51.9400 C.3    43  ILE43       0.0019
      8  CD1       39.8120   31.9610   50.8540 C.3    43  ILE43       0.0001
      9  N         41.8700   34.6340   54.5870 N.3    49  LEU49      -0.1245
     10  CA        42.4270   34.4170   53.2490 C.3    49  LEU49       0.1561
     11  C         43.7860   33.7200   53.3460 C.2    49  LEU49       0.2260
     12  O         44.0280   32.7060   52.6840 O.2    49  LEU49      -0.2867
     13  CB        42.5760   35.7420   52.4970 C.3    49  LEU49       0.0270
     14  CG        43.2810   35.6360   51.1400 C.3    49  LEU49       0.0019
     15  CD1       42.3260   35.0980   50.0760 C.3    49  LEU49       0.0001
     16  CD2       43.8450   36.9790   50.7160 C.3    49  LEU49       0.0001
     17  N         44.8880   29.8070   52.1890 N.3    53  GLU53      -0.1245
     18  CA        45.9360   29.3760   51.2630 C.3    53  GLU53       0.1567
     19  C         46.8290   28.3040   51.8920 C.2    53  GLU53       0.2260
     20  O         47.5220   27.5660   51.1780 O.2    53  GLU53      -0.2867
     21  CB        46.7810   30.5680   50.8220 C.3    53  GLU53       0.0388
     22  CG        45.9740   31.7190   50.2540 C.3    53  GLU53       0.1160
     23  CD        46.8330   32.9080   49.8660 C.2    53  GLU53       0.3649
     24  OE1       47.7310   33.2970   50.6620 O.co2  53  GLU53      -0.2457
     25  OE2       46.6020   33.4620   48.7590 O.co2  53  GLU53      -0.2457
     26  N         45.1370   25.3340   46.4240 N.3    58  PHE58      -0.1241
     27  CA        45.4400   26.3720   45.4150 C.3    58  PHE58       0.1605
     28  C         46.6340   26.0200   44.5230 C.2    58  PHE58       0.2264
     29  O         47.7830   25.9100   44.9780 O.2    58  PHE58      -0.2867
     30  CB        45.5710   27.7750   46.0330 C.3    58  PHE58       0.0534
     31  CG        44.3110   28.2550   46.6980 C.ar   58  PHE58      -0.0203
     32  CD1       44.3120   28.6260   48.0370 C.ar   58  PHE58      -0.0042
     33  CD2       43.1120   28.3070   45.9940 C.ar   58  PHE58      -0.0042
     34  CE1       43.1410   29.0630   48.6580 C.ar   58  PHE58      -0.0003
     35  CE2       41.9400   28.7320   46.6080 C.ar   58  PHE58      -0.0003
     36  CZ        41.9540   29.1090   47.9410 C.ar   58  PHE58      -0.0000
     37  N         47.4590   27.8170   41.8410 N.3    60  HIS60      -0.1226
     38  CA        47.8910   29.0190   41.1260 C.3    60  HIS60       0.1752
     39  C         48.9580   29.8580   41.8330 C.2    60  HIS60       0.2595
     40  O         49.4690   30.8130   41.2380 O.2    60  HIS60      -0.2718
     41  CB        46.6790   29.8990   40.8280 C.3    60  HIS60       0.0759
     42  CG        45.9840   30.3670   42.0600 C.ar   60  HIS60       0.0818
     43  ND1       46.2920   31.5610   42.6760 N.ar   60  HIS60      -0.2268
     44  CD2       45.0280   29.7800   42.8180 C.ar   60  HIS60       0.1154
     45  CE1       45.5430   31.6980   43.7540 C.ar   60  HIS60       0.1986
     46  NE2       44.7700   30.6280   43.8650 N.ar   60  HIS60      -0.2212
     47  N         49.3080   29.5190   43.0740 N.am   61  ILE61      -0.1980
     48  CA        50.2260   30.3800   43.8280 C.3    61  ILE61       0.1595
     49  C         51.7010   30.1730   43.4460 C.2    61  ILE61       0.2287
     50  O         52.2380   29.0250   43.5310 O.2    61  ILE61      -0.2864
     51  CB        50.0050   30.3030   45.3660 C.3    61  ILE61       0.0276
     52  CG1       50.4160   28.9360   45.9180 C.3    61  ILE61       0.0022
     53  CG2       48.5520   30.6370   45.7300 C.3    61  ILE61       0.0022
     54  CD1       51.1410   29.0280   47.2900 C.3    61  ILE61       0.0001
     55  N         46.8380   38.0750   43.5850 N.3    67  ARG67      -0.1231
     56  CA        46.8230   36.6360   43.8160 C.3    67  ARG67       0.1694
     57  C         45.4240   36.0610   43.6240 C.2    67  ARG67       0.2591
     58  O         45.2690   34.9880   43.0340 O.2    67  ARG67      -0.2718
     59  CB        47.3260   36.3420   45.2290 C.3    67  ARG67       0.0321
     60  CG        48.1560   35.0770   45.3630 C.3    67  ARG67       0.0489
     61  CD        49.0810   35.1710   46.5730 C.3    67  ARG67       0.2205
     62  NE        48.3580   35.3500   47.8390 N.pl3  67  ARG67      -0.0865
     63  CZ        48.5830   36.3310   48.7200 C.cat  67  ARG67       0.5346
     64  NH1       49.5180   37.2510   48.4970 N.pl3  67  ARG67       0.1354
     65  NH2       47.8740   36.3900   49.8410 N.pl3  67  ARG67       0.1354
     66  N         44.4200   36.7820   44.1300 N.am   68  ILE68      -0.1980
     67  CA        43.0060   36.4120   43.9610 C.3    68  ILE68       0.1595
     68  C         42.5680   36.5010   42.4940 C.2    68  ILE68       0.2287
     69  O         41.9020   35.6020   41.9940 O.2    68  ILE68      -0.2864
     70  CB        42.0700   37.2640   44.8450 C.3    68  ILE68       0.0276
     71  CG1       42.3910   37.0340   46.3230 C.3    68  ILE68       0.0022
     72  CG2       40.6050   36.9290   44.5530 C.3    68  ILE68       0.0022
     73  CD1       41.6720   37.9750   47.2730 C.3    68  ILE68       0.0001
     74  N         44.0420   33.5860   40.6270 N.3    71  GLY71      -0.1210
     75  CA        43.3660   32.3440   40.9880 C.3    71  GLY71       0.1956
     76  C         42.0980   32.1680   40.1830 C.2    71  GLY71       0.2612
     77  O         41.7320   31.0550   39.7910 O.2    71  GLY71      -0.2717
     78  N         41.4430   33.2960   39.9370 N.am   72  CYS72      -0.1970
     79  CA        40.2470   33.3640   39.1390 C.3    72  CYS72       0.1712
     80  C         40.5780   33.0730   37.6830 C.2    72  CYS72       0.2296
     81  O         39.7730   32.4630   36.9750 O.2    72  CYS72      -0.2864
     82  CB        39.6200   34.7500   39.3060 C.3    72  CYS72       0.0983
     83  SG        38.2250   35.0880   38.2440 S.3    72  CYS72      -0.0798
     84  N         41.2760   29.2320   37.3660 N.3    75  ARG75      -0.1231
     85  CA        40.0000   28.5380   37.3790 C.3    75  ARG75       0.1694
     86  C         39.2340   28.7140   36.0590 C.2    75  ARG75       0.2592
     87  O         38.6100   27.7700   35.5670 O.2    75  ARG75      -0.2718
     88  CB        39.1480   28.9890   38.5700 C.3    75  ARG75       0.0321
     89  CG        37.7750   28.3340   38.6210 C.3    75  ARG75       0.0489
     90  CD        37.8560   26.8180   38.7560 C.3    75  ARG75       0.2205
     91  NE        36.5780   26.1780   38.4490 N.pl3  75  ARG75      -0.0865
     92  CZ        36.3500   25.4340   37.3720 C.cat  75  ARG75       0.5346
     93  NH1       37.3190   25.2260   36.4960 N.pl3  75  ARG75       0.1354
     94  NH2       35.1570   24.8930   37.1680 N.pl3  75  ARG75       0.1354
     95  N         39.2930   29.9260   35.5090 N.am   76  SER76      -0.1952
     96  CA        38.6860   30.2360   34.2170 C.3    76  SER76       0.1924
     97  C         39.2490   29.4080   33.0750 C.2    76  SER76       0.2314
     98  O         38.4910   28.8810   32.2620 O.2    76  SER76      -0.2863
     99  CB        38.8200   31.7210   33.9140 C.3    76  SER76       0.2116
    100  OG        37.9730   32.4290   34.8020 O.3    76  SER76      -0.2180
    101  N         37.8880   26.0730   33.5050 N.3    79  ALA79      -0.1245
    102  CA        36.4920   26.0420   33.0490 C.3    79  ALA79       0.1562
    103  C         36.4050   25.9130   31.5290 C.2    79  ALA79       0.2260
    104  O         35.5890   25.1380   31.0050 O.2    79  ALA79      -0.2867
    105  CB        35.7080   27.2720   33.5520 C.3    79  ALA79       0.0290
    106  N         30.9800   30.7280   31.5870 N.3   113  ILE113     -0.1245
    107  CA        31.6540   30.9670   32.8530 C.3   113  ILE113      0.1561
    108  C         30.7690   31.7110   33.8600 C.2   113  ILE113      0.2260
    109  O         30.6640   31.3030   34.9950 O.2   113  ILE113     -0.2867
    110  CB        33.0220   31.6800   32.6350 C.3   113  ILE113      0.0252
    111  CG1       34.0310   30.6770   32.0430 C.3   113  ILE113      0.0019
    112  CG2       33.5620   32.2550   33.9470 C.3   113  ILE113      0.0019
    113  CD1       35.1850   31.3050   31.3230 C.3   113  ILE113      0.0001
    114  N         27.6850   29.6650   34.9630 N.3   116  MET116     -0.1230
    115  CA        28.0140   28.5700   35.8610 C.3   116  MET116      0.1702
    116  C         28.5670   29.0870   37.1730 C.2   116  MET116      0.2592
    117  O         28.4420   28.4430   38.2150 O.2   116  MET116     -0.2718
    118  CB        28.9770   27.6120   35.1770 C.3   116  MET116      0.0401
    119  CG        28.3700   26.9920   33.8940 C.3   116  MET116      0.0596
    120  SD        29.1100   25.4050   33.4440 S.3   116  MET116     -0.1393
    121  CE        28.6490   24.4060   34.8740 C.3   116  MET116      0.0692
    122  N         29.1620   30.2720   37.1110 N.am  117  LEU117     -0.1980
    123  CA        29.5770   31.0040   38.3000 C.3   117  LEU117      0.1596
    124  C         28.3530   31.3550   39.1560 C.2   117  LEU117      0.2287
    125  O         28.4360   31.4030   40.3850 O.2   117  LEU117     -0.2864
    126  CB        30.3300   32.2660   37.8900 C.3   117  LEU117      0.0297
    127  CG        31.2710   33.0040   38.8390 C.3   117  LEU117      0.0022
    128  CD1       32.0930   32.0440   39.7120 C.3   117  LEU117      0.0001
    129  CD2       32.1860   33.9310   38.0270 C.3   117  LEU117      0.0001
    130  N         27.4550   28.8400   41.6790 N.3   120  LEU120     -0.1245
    131  CA        28.3280   28.7450   42.8440 C.3   120  LEU120      0.1561
    132  C         28.2410   29.9710   43.7440 C.2   120  LEU120      0.2260
    133  O         28.9810   30.0730   44.7340 O.2   120  LEU120     -0.2867
    134  CB        29.7830   28.5410   42.4130 C.3   120  LEU120      0.0270
    135  CG        30.1600   27.4230   41.4390 C.3   120  LEU120      0.0019
    136  CD1       31.6550   27.4650   41.1830 C.3   120  LEU120      0.0001
    137  CD2       29.7520   26.0530   41.9020 C.3   120  LEU120      0.0001
    138  N         30.9100   33.3820   47.0160 N.3   126  VAL126     -0.1231
    139  CA        31.1360   32.4610   45.9120 C.3   126  VAL126      0.1692
    140  C         31.9460   31.2750   46.3960 C.2   126  VAL126      0.2592
    141  O         32.9440   31.4500   47.0930 O.2   126  VAL126     -0.2718
    142  CB        31.8740   33.1570   44.7210 C.3   126  VAL126      0.0266
    143  CG1       33.2640   33.6960   45.1340 C.3   126  VAL126      0.0020
    144  CG2       32.0080   32.2180   43.5160 C.3   126  VAL126      0.0020
    145  N         31.5070   30.0690   46.0380 N.am  127  LEU127     -0.1966
    146  CA        32.2590   28.8430   46.2840 C.3   127  LEU127      0.1728
    147  C         33.4990   28.8180   45.4230 C.2   127  LEU127      0.2616
    148  O         33.4120   29.0060   44.2230 O.2   127  LEU127     -0.2715
    149  CB        31.4080   27.6150   45.9490 C.3   127  LEU127      0.0311
    150  CG        30.2980   27.2820   46.9430 C.3   127  LEU127      0.0022
    151  CD1       29.4640   26.1560   46.3640 C.3   127  LEU127      0.0001
    152  CD2       30.8860   26.9020   48.3090 C.3   127  LEU127      0.0001
    153  N         34.6570   28.6000   46.0340 N.am  128  ILE128     -0.1963
    154  CA        35.9090   28.5060   45.2910 C.3   128  ILE128      0.1727
    155  C         36.5620   27.1550   45.5560 C.2   128  ILE128      0.2616
    156  O         36.0890   26.3800   46.3980 O.2   128  ILE128     -0.2715
    157  CB        36.8880   29.6530   45.6390 C.3   128  ILE128      0.0290
    158  CG1       37.3260   29.5770   47.1130 C.3   128  ILE128      0.0022
    159  CG2       36.2780   31.0180   45.2700 C.3   128  ILE128      0.0023
    160  CD1       38.5600   30.4080   47.4520 C.3   128  ILE128      0.0001
    161  N         37.6530   26.8970   44.8380 N.am  129  SER129     -0.1950
    162  CA        38.3950   25.6190   44.8520 C.3   129  SER129      0.1924
    163  C         37.5490   24.3520   45.0230 C.2   129  SER129      0.2314
    164  O         37.7330   23.5900   45.9730 O.2   129  SER129     -0.2863
    165  CB        39.5370   25.6540   45.8680 C.3   129  SER129      0.2116
    166  OG        39.0150   25.6670   47.1780 O.3   129  SER129     -0.2180
    167  N         34.2990   32.3730   49.2790 N.3   135  MET135     -0.1245
    168  CA        34.8550   33.7100   49.4270 C.3   135  MET135      0.1570
    169  C         33.7320   34.7130   49.5000 C.2   135  MET135      0.2261
    170  O         32.8760   34.7670   48.6150 O.2   135  MET135     -0.2867
    171  CB        35.8190   34.0360   48.2940 C.3   135  MET135      0.0387
    172  CG        36.6790   35.2570   48.5550 C.3   135  MET135      0.0595
    173  SD        37.9510   35.3860   47.3060 S.3   135  MET135     -0.1393
    174  CE        39.1890   34.3420   48.0160 C.3   135  MET135      0.0692
    175  N         34.2710   41.3830   40.6850 N.3   151  MET151     -0.1245
    176  CA        33.3080   40.3340   41.0180 C.3   151  MET151      0.1570
    177  C         31.8940   40.8500   41.2940 C.2   151  MET151      0.2261
    178  O         30.9370   40.1120   41.1040 O.2   151  MET151     -0.2867
    179  CB        33.7940   39.5120   42.2120 C.3   151  MET151      0.0387
    180  CG        34.8230   38.4600   41.8670 C.3   151  MET151      0.0595
    181  SD        34.0990   37.0780   40.9850 S.3   151  MET151     -0.1393
    182  CE        35.5960   36.2930   40.4140 C.3   151  MET151      0.0692
@<TRIPOS>BOND
     1   104   103    2
     2   113   111    1
     3   103   102    1
     4   106   107    1
     5   111   110    1
     6    98    97    2
     7   110   107    1
     8   110   112    1
     9   107   108    1
    10   102   101    1
    11   102   105    1
    12    97    96    1
    13   120   119    1
    14   120   121    1
    15   108   109    2
    16   119   118    1
    17    99    96    1
    18    99   100    1
    19    96    95    1
    20   114   115    1
    21   118   115    1
    22    95    86   am
    23    87    86    2
    24   115   116    1
    25    86    85    1
    26    93    92    1
    27    81    80    2
    28   122   116   am
    29   122   123    1
    30    94    92    1
    31   116   117    2
    32    84    85    1
    33    92    91    2
    34    85    88    1
    35    80    79    1
    36   126   123    1
    37   126   127    1
    38   129   127    1
    39    83    82    1
    40   123   124    1
    41    91    90    1
    42    88    89    1
    43    89    90    1
    44   127   128    1
    45    79    82    1
    46    79    78    1
    47   124   125    2
    48    77    76    2
    49    78    76   am
    50    76    75    1
    51   182   181    1
    52    74    75    1
    53   175   176    1
    54    41    38    1
    55    41    42    1
    56   181   180    1
    57   176   177    1
    58   176   179    1
    59   178   177    2
    60    38    39    1
    61    38    37    1
    62   136   135    1
    63    40    39    2
    64   135   137    1
    65   135   134    1
    66   130   131    1
    67    39    47   am
    68   180   179    1
    69    69    68    2
    70    42    43   ar
    71    42    44   ar
    72   134   131    1
    73    68    67    1
    74    43    45   ar
    75    44    46   ar
    76   131   132    1
    77    58    57    2
    78    47    48    1
    79    49    50    2
    80    49    48    1
    81   144   142    1
    82    55    56    1
    83    57    56    1
    84    57    66   am
    85   132   133    2
    86    45    46   ar
    87    56    59    1
    88    48    51    1
    89    67    66    1
    90    67    70    1
    91   148   147    2
    92    28    29    2
    93    28    27    1
    94    72    70    1
    95   142   143    1
    96   142   139    1
    97   161   162    1
    98   161   155   am
    99    70    71    1
   100   162   163    1
   101   162   165    1
   102   163   164    2
   103    59    60    1
   104   159   157    1
   105   154   155    1
   106   154   157    1
   107   154   153    1
   108    60    61    1
   109    51    53    1
   110    51    52    1
   111    27    30    1
   112    27    26    1
   113   147   153   am
   114   147   146    1
   115   155   156    2
   116   157   158    1
   117   165   166    1
   118   139   140    1
   119   139   138    1
   120    52    54    1
   121   149   146    1
   122   149   150    1
   123    33    35   ar
   124    33    31   ar
   125    30    31    1
   126   145   146    1
   127   145   140   am
   128    71    73    1
   129   151   150    1
   130   140   141    2
   131    61    62    1
   132    35    36   ar
   133    31    32   ar
   134   150   152    1
   135   158   160    1
   136   173   174    1
   137   173   172    1
   138    62    63    2
   139    36    34   ar
   140    32    34   ar
   141   171   172    1
   142   171   168    1
   143    64    63    1
   144   170   169    2
   145    63    65    1
   146    25    23   ar
   147   167   168    1
   148   168   169    1
   149    23    22    1
   150    23    24   ar
   151    15    14    1
   152    22    21    1
   153    16    14    1
   154    21    18    1
   155     8     6    1
   156    14    13    1
   157    20    19    2
   158    18    19    1
   159    18    17    1
   160     7     5    1
   161     6     5    1
   162     5     2    1
   163    13    10    1
   164     4     3    2
   165    12    11    2
   166    10    11    1
   167    10     9    1
   168     2     3    1
   169     2     1    1
