@<TRIPOS>MOLECULE
tmp/2q6uA01.pdb
 106 103 0 0 0
SMALL
GASTEIGER

@<TRIPOS>ATOM
      1  N        -16.0200  -21.6200  -19.1970 N.3    49  HIS49      -0.1241
      2  CA       -16.6710  -22.8190  -18.6630 C.3    49  HIS49       0.1621
      3  C        -18.0640  -22.5570  -18.1390 C.2    49  HIS49       0.2264
      4  O        -18.2880  -21.5920  -17.3930 O.2    49  HIS49      -0.2867
      5  CB       -15.8280  -23.4220  -17.5210 C.3    49  HIS49       0.0745
      6  CG       -16.3560  -24.7340  -17.0010 C.ar   49  HIS49       0.0817
      7  ND1      -16.7620  -25.7480  -17.8380 N.ar   49  HIS49      -0.2268
      8  CD2      -16.4960  -25.2090  -15.7380 C.ar   49  HIS49       0.1154
      9  CE1      -17.1380  -26.7930  -17.1130 C.ar   49  HIS49       0.1986
     10  NE2      -16.9850  -26.4920  -15.8360 N.ar   49  HIS49      -0.2212
     11  N        -20.9060  -24.3380  -15.8580 N.3    51  ARG51      -0.1245
     12  CA       -21.0520  -25.4330  -14.9030 C.3    51  ARG51       0.1563
     13  C        -22.2800  -25.1690  -14.0710 C.2    51  ARG51       0.2260
     14  O        -22.6780  -24.0140  -13.8580 O.2    51  ARG51      -0.2867
     15  CB       -19.8400  -25.5450  -13.9790 C.3    51  ARG51       0.0307
     16  CG       -19.4750  -24.2310  -13.2590 C.3    51  ARG51       0.0489
     17  CD       -18.3950  -24.4950  -12.2460 C.3    51  ARG51       0.2205
     18  NE       -17.6590  -23.2820  -11.8770 N.pl3  51  ARG51      -0.0865
     19  CZ       -17.6800  -22.7180  -10.6710 C.cat  51  ARG51       0.5346
     20  NH1      -18.4140  -23.2390   -9.6820 N.pl3  51  ARG51       0.1354
     21  NH2      -16.9200  -21.6470  -10.4340 N.pl3  51  ARG51       0.1354
     22  N        -12.4240  -21.2960   -7.2340 N.3    99  GLU99      -0.1245
     23  CA       -13.2750  -22.1410   -8.0950 C.3    99  GLU99       0.1567
     24  C        -14.2750  -22.9080   -7.2010 C.2    99  GLU99       0.2260
     25  O        -15.2750  -23.4380   -7.6750 O.2    99  GLU99      -0.2867
     26  CB       -12.3950  -23.1240   -8.9020 C.3    99  GLU99       0.0388
     27  CG       -13.1630  -24.1250   -9.8130 C.3    99  GLU99       0.1160
     28  CD       -13.8120  -23.4760  -11.0590 C.2    99  GLU99       0.3649
     29  OE1      -14.2710  -24.2230  -11.9660 O.co2  99  GLU99      -0.2457
     30  OE2      -13.8810  -22.2330  -11.1220 O.co2  99  GLU99      -0.2457
     31  N        -13.9220  -30.1780  -19.7340 N.3   238  PHE238     -0.1241
     32  CA       -13.2460  -29.0310  -19.1370 C.3   238  PHE238      0.1605
     33  C        -12.6850  -29.6800  -17.8520 C.2   238  PHE238      0.2264
     34  O        -13.3380  -30.5560  -17.2560 O.2   238  PHE238     -0.2867
     35  CB       -14.2590  -27.9640  -18.7110 C.3   238  PHE238      0.0534
     36  CG       -13.7360  -27.0430  -17.6500 C.ar  238  PHE238     -0.0203
     37  CD1      -13.8770  -27.3670  -16.2980 C.ar  238  PHE238     -0.0042
     38  CD2      -13.0400  -25.9110  -18.0000 C.ar  238  PHE238     -0.0042
     39  CE1      -13.3250  -26.5690  -15.3080 C.ar  238  PHE238     -0.0003
     40  CE2      -12.4650  -25.0900  -17.0110 C.ar  238  PHE238     -0.0003
     41  CZ       -12.6170  -25.4320  -15.6590 C.ar  238  PHE238     -0.0000
     42  N        -10.3710  -28.9460  -13.9920 N.3   240  PHE240     -0.1241
     43  CA        -9.7580  -27.9720  -13.0710 C.3   240  PHE240      0.1605
     44  C         -9.0720  -28.8210  -11.9960 C.2   240  PHE240      0.2264
     45  O         -9.7210  -29.6880  -11.4000 O.2   240  PHE240     -0.2867
     46  CB       -10.8370  -27.1030  -12.4290 C.3   240  PHE240      0.0534
     47  CG       -10.2900  -25.8880  -11.7170 C.ar  240  PHE240     -0.0203
     48  CD1      -10.3420  -24.6380  -12.3120 C.ar  240  PHE240     -0.0042
     49  CD2       -9.7110  -26.0160  -10.4450 C.ar  240  PHE240     -0.0042
     50  CE1       -9.8130  -23.4790  -11.6400 C.ar  240  PHE240     -0.0003
     51  CE2       -9.1780  -24.8820   -9.7610 C.ar  240  PHE240     -0.0003
     52  CZ        -9.2370  -23.6050  -10.3700 C.ar  240  PHE240     -0.0000
     53  N         -6.1420  -25.3140  -15.1470 N.3   254  TYR254     -0.1241
     54  CA        -7.3890  -25.7600  -15.7350 C.3   254  TYR254      0.1605
     55  C         -7.2170  -25.8110  -17.2550 C.2   254  TYR254      0.2264
     56  O         -6.2670  -25.2510  -17.8280 O.2   254  TYR254     -0.2867
     57  CB        -8.5340  -24.7890  -15.3770 C.3   254  TYR254      0.0534
     58  CG        -8.3400  -23.4190  -16.0220 C.ar  254  TYR254     -0.0201
     59  CD1       -8.8310  -23.1600  -17.2920 C.ar  254  TYR254     -0.0009
     60  CD2       -7.6010  -22.4280  -15.3860 C.ar  254  TYR254     -0.0009
     61  CE1       -8.5720  -21.9400  -17.9330 C.ar  254  TYR254      0.0417
     62  CE2       -7.3420  -21.2000  -16.0190 C.ar  254  TYR254      0.0417
     63  CZ        -7.8290  -20.9770  -17.2840 C.ar  254  TYR254      0.1957
     64  OH        -7.5700  -19.7890  -17.9380 O.3   254  TYR254     -0.2866
     65  N         -9.4450  -26.9640  -21.2970 N.3   256  PHE256     -0.1241
     66  CA       -10.6470  -27.3520  -22.0440 C.3   256  PHE256      0.1605
     67  C        -10.3120  -28.4050  -23.0790 C.2   256  PHE256      0.2264
     68  O         -9.1580  -28.5180  -23.5460 O.2   256  PHE256     -0.2867
     69  CB       -11.2080  -26.1580  -22.8200 C.3   256  PHE256      0.0534
     70  CG       -11.7110  -25.0250  -21.9580 C.ar  256  PHE256     -0.0203
     71  CD1      -13.0680  -24.9510  -21.6090 C.ar  256  PHE256     -0.0042
     72  CD2      -10.8530  -24.0410  -21.5050 C.ar  256  PHE256     -0.0042
     73  CE1      -13.5450  -23.8980  -20.8060 C.ar  256  PHE256     -0.0003
     74  CE2      -11.3240  -22.9880  -20.7010 C.ar  256  PHE256     -0.0003
     75  CZ       -12.6480  -22.9160  -20.3510 C.ar  256  PHE256     -0.0000
     76  N         -4.5180  -20.6810  -12.7030 N.3   272  ASP272     -0.1239
     77  CA        -5.4720  -19.8170  -12.0070 C.3   272  ASP272      0.1674
     78  C         -4.6690  -19.3710  -10.7870 C.2   272  ASP272      0.2266
     79  O         -4.8010  -19.9300   -9.6900 O.2   272  ASP272     -0.2867
     80  CB        -6.7370  -20.6090  -11.6130 C.3   272  ASP272      0.1410
     81  CG        -7.7400  -19.7920  -10.7800 C.2   272  ASP272      0.3668
     82  OD1       -8.8010  -20.3550  -10.4240 O.co2 272  ASP272     -0.2456
     83  OD2       -7.4810  -18.6250  -10.4380 O.co2 272  ASP272     -0.2456
     84  N        -16.1720  -14.8110  -11.5670 N.3   349  TRP349     -0.1241
     85  CA       -16.1120  -15.6360  -12.7910 C.3   349  TRP349      0.1605
     86  C        -17.5600  -15.5830  -13.2930 C.2   349  TRP349      0.2264
     87  O        -18.3890  -16.4340  -12.9680 O.2   349  TRP349     -0.2867
     88  CB       -15.7310  -17.0720  -12.4360 C.3   349  TRP349      0.0550
     89  CG       -14.4120  -17.2270  -11.7490 C.ar  349  TRP349      0.0003
     90  CD1      -14.1730  -17.9630  -10.6200 C.ar  349  TRP349      0.0946
     91  CD2      -13.1230  -16.7730  -12.2130 C.ar  349  TRP349      0.0152
     92  NE1      -12.8170  -18.0150  -10.3550 N.ar  349  TRP349     -0.2442
     93  CE2      -12.1490  -17.2900  -11.3110 C.ar  349  TRP349      0.0810
     94  CE3      -12.6950  -15.9930  -13.3010 C.ar  349  TRP349      0.0012
     95  CZ2      -10.7850  -17.0520  -11.4590 C.ar  349  TRP349      0.0191
     96  CZ3      -11.3220  -15.7520  -13.4570 C.ar  349  TRP349      0.0001
     97  CH2      -10.3770  -16.2840  -12.5310 C.ar  349  TRP349      0.0015
     98  N        -20.4950  -17.3670  -17.2490 N.3   352  LYS352     -0.1245
     99  CA       -21.5680  -18.3470  -17.1920 C.3   352  LYS352      0.1561
    100  C        -22.9020  -17.7140  -16.8000 C.2   352  LYS352      0.2260
    101  O        -23.9570  -18.2860  -17.0460 O.2   352  LYS352     -0.2867
    102  CB       -21.2050  -19.4480  -16.1760 C.3   352  LYS352      0.0271
    103  CG       -21.1560  -18.9580  -14.7150 C.3   352  LYS352      0.0035
    104  CD       -20.8040  -20.1130  -13.7370 C.3   352  LYS352      0.0206
    105  CE       -19.3330  -20.5480  -13.8690 C.3   352  LYS352      0.1093
    106  NZ       -18.3940  -19.4480  -13.4170 N.3   352  LYS352     -0.1314
@<TRIPOS>BOND
     1    68    67    2
     2    67    66    1
     3    69    66    1
     4    69    70    1
     5    66    65    1
     6    70    71   ar
     7    70    72   ar
     8    71    73   ar
     9    72    74   ar
    10    73    75   ar
    11    74    75   ar
    12    31    32    1
    13     1     2    1
    14    32    35    1
    15    32    33    1
    16    35    36    1
    17     2     3    1
    18     2     5    1
    19     3     4    2
    20    38    36   ar
    21    38    40   ar
    22    64    63    1
    23    61    59   ar
    24    61    63   ar
    25    33    34    2
    26     7     9   ar
    27     7     6   ar
    28    56    55    2
    29    36    37   ar
    30     5     6    1
    31    59    58   ar
    32    63    62   ar
    33    55    54    1
    34    98    99    1
    35    99   100    1
    36    99   102    1
    37     9    10   ar
    38   101   100    2
    39    40    41   ar
    40     6     8   ar
    41    37    39   ar
    42   102   103    1
    43    58    60   ar
    44    58    57    1
    45    62    60   ar
    46    11    12    1
    47    10     8   ar
    48    54    57    1
    49    54    53    1
    50    41    39   ar
    51    12    13    1
    52    12    15    1
    53   103   104    1
    54    13    14    2
    55    42    43    1
    56    15    16    1
    57   105   104    1
    58   105   106    1
    59    96    94   ar
    60    96    97   ar
    61    94    91   ar
    62    86    87    2
    63    86    85    1
    64    16    17    1
    65    43    46    1
    66    43    44    1
    67    85    88    1
    68    85    84    1
    69    76    77    1
    70    97    95   ar
    71    88    89    1
    72    46    47    1
    73    48    47   ar
    74    48    50   ar
    75    17    18    1
    76    91    89   ar
    77    91    93   ar
    78    77    80    1
    79    77    78    1
    80    44    45    2
    81    29    28   ar
    82    18    19    2
    83    89    90   ar
    84    47    49   ar
    85    50    52   ar
    86    80    81    1
    87    95    93   ar
    88    93    92   ar
    89    30    28   ar
    90    28    27    1
    91    78    79    2
    92    81    83   ar
    93    81    82   ar
    94    19    21    1
    95    19    20    1
    96    90    92   ar
    97    49    51   ar
    98    52    51   ar
    99    27    26    1
   100    26    23    1
   101    23    22    1
   102    23    24    1
   103    25    24    2
