@<TRIPOS>MOLECULE
tmp/2q6vA00.pdb
 175 166 0 0 0
SMALL
GASTEIGER

@<TRIPOS>ATOM
      1  N         18.3680   78.5540   -8.4610 N.3    16  ARG16      -0.1231
      2  CA        18.7660   77.5860   -7.4560 C.3    16  ARG16       0.1694
      3  C         18.0440   77.9510   -6.1310 C.2    16  ARG16       0.2592
      4  O         18.4300   78.8760   -5.4140 O.2    16  ARG16      -0.2718
      5  CB        20.2970   77.5750   -7.3520 C.3    16  ARG16       0.0321
      6  CG        20.9180   76.4100   -6.6140 C.3    16  ARG16       0.0489
      7  CD        22.4760   76.5780   -6.6230 C.3    16  ARG16       0.2205
      8  NE        23.1530   75.9630   -7.7790 N.pl3  16  ARG16      -0.0865
      9  CZ        24.4450   76.1500   -8.0840 C.cat  16  ARG16       0.5346
     10  NH1       25.1900   76.9640   -7.3320 N.pl3  16  ARG16       0.1354
     11  NH2       25.0020   75.5240   -9.1330 N.pl3  16  ARG16       0.1354
     12  N         16.9480   77.2570   -5.8590 N.am   17  ARG17      -0.1966
     13  CA        16.2160   77.4450   -4.6220 C.3    17  ARG17       0.1729
     14  C         16.7650   76.6500   -3.4550 C.2    17  ARG17       0.2616
     15  O         16.9460   75.4330   -3.5460 O.2    17  ARG17      -0.2715
     16  CB        14.7550   77.1480   -4.8360 C.3    17  ARG17       0.0348
     17  CG        14.2360   78.0490   -5.9180 C.3    17  ARG17       0.0492
     18  CD        12.9230   77.5930   -6.4530 C.3    17  ARG17       0.2205
     19  NE        12.0880   77.0520   -5.4010 N.pl3  17  ARG17      -0.0865
     20  CZ        11.3020   77.7670   -4.6070 C.cat  17  ARG17       0.5346
     21  NH1       11.2240   79.0890   -4.7130 N.pl3  17  ARG17       0.1354
     22  NH2       10.5880   77.1300   -3.6950 N.pl3  17  ARG17       0.1354
     23  N         17.0150   77.3660   -2.3630 N.am   18  ALA18      -0.1977
     24  CA        17.5070   76.8170   -1.1150 C.3    18  ALA18       0.1597
     25  C         16.3490   76.7600   -0.1470 C.2    18  ALA18       0.2287
     26  O         15.2530   77.1960   -0.4860 O.2    18  ALA18      -0.2864
     27  CB        18.6530   77.7000   -0.5750 C.3    18  ALA18       0.0319
     28  N         11.8900   77.9900   -0.0470 N.3    22  PHE22      -0.1241
     29  CA        10.7540   77.1460    0.2270 C.3    22  PHE22       0.1605
     30  C          9.9470   77.6790    1.4120 C.2    22  PHE22       0.2264
     31  O          8.7370   77.6360    1.4080 O.2    22  PHE22      -0.2867
     32  CB        11.2090   75.7190    0.4860 C.3    22  PHE22       0.0534
     33  CG        11.7420   75.0140   -0.7460 C.ar   22  PHE22      -0.0203
     34  CD1       10.8870   74.5540   -1.7310 C.ar   22  PHE22      -0.0042
     35  CD2       13.1080   74.8110   -0.9060 C.ar   22  PHE22      -0.0042
     36  CE1       11.3730   73.9230   -2.8370 C.ar   22  PHE22      -0.0003
     37  CE2       13.6040   74.1770   -2.0270 C.ar   22  PHE22      -0.0003
     38  CZ        12.7400   73.7360   -3.0000 C.ar   22  PHE22      -0.0000
     39  N         21.9740   64.6760   -6.5100 N.3   215  VAL215     -0.1231
     40  CA        21.3370   65.9360   -6.9190 C.3   215  VAL215      0.1692
     41  C         21.9720   67.0420   -6.1140 C.2   215  VAL215      0.2593
     42  O         21.9280   67.0360   -4.8880 O.2   215  VAL215     -0.2718
     43  CB        19.7860   65.9540   -6.7070 C.3   215  VAL215      0.0266
     44  CG1       19.1440   67.0780   -7.5040 C.3   215  VAL215      0.0020
     45  CG2       19.1230   64.6800   -7.1650 C.3   215  VAL215      0.0020
     46  N         22.5820   67.9920   -6.7910 N.am  216  GLY216     -0.1942
     47  CA        23.0910   69.1480   -6.0910 C.3   216  GLY216      0.2014
     48  C         24.5730   69.2920   -6.1940 C.2   216  GLY216      0.2640
     49  O         25.3120   68.3220   -6.3520 O.2   216  GLY216     -0.2714
     50  N         25.0190   70.5200   -6.0580 N.am  217  SER217     -0.1935
     51  CA        26.3950   70.8570   -6.3460 C.3   217  SER217      0.2055
     52  C         27.2090   71.0900   -5.0760 C.2   217  SER217      0.2642
     53  O         28.4190   71.2590   -5.1660 O.2   217  SER217     -0.2714
     54  CB        26.4210   72.1420   -7.1970 C.3   217  SER217      0.2130
     55  OG        25.8310   73.1960   -6.4730 O.3   217  SER217     -0.2179
     56  N         26.5570   71.1170   -3.9130 N.am  218  MET218     -0.1976
     57  CA        27.2550   71.3680   -2.6440 C.3   218  MET218      0.1605
     58  C         28.4310   70.4250   -2.4560 C.2   218  MET218      0.2287
     59  O         28.2810   69.1850   -2.4040 O.2   218  MET218     -0.2864
     60  CB        26.3110   71.3260   -1.4290 C.3   218  MET218      0.0413
     61  CG        26.9430   71.6240   -0.0390 C.3   218  MET218      0.0598
     62  SD        27.7920   73.2520   -0.1050 S.3   218  MET218     -0.1393
     63  CE        26.4800   74.4050   -0.6050 C.3   218  MET218      0.0692
     64  N         22.8230   65.0130  -11.1940 N.3   240  ILE240     -0.1231
     65  CA        21.9480   66.1180  -11.5110 C.3   240  ILE240      0.1692
     66  C         22.3730   67.3790  -10.7980 C.2   240  ILE240      0.2592
     67  O         22.5230   67.3900   -9.5820 O.2   240  ILE240     -0.2718
     68  CB        20.5030   65.7700  -11.1240 C.3   240  ILE240      0.0266
     69  CG1       20.0960   64.4450  -11.7720 C.3   240  ILE240      0.0019
     70  CG2       19.5670   66.9210  -11.4560 C.3   240  ILE240      0.0020
     71  CD1       18.7360   63.8870  -11.3090 C.3   240  ILE240      0.0001
     72  N         22.5590   68.4520  -11.5570 N.am  241  GLY241     -0.1957
     73  CA        22.8390   69.7430  -10.9780 C.3   241  GLY241      0.1869
     74  C         24.0600   69.6870  -10.0810 C.2   241  GLY241      0.2309
     75  O         24.0810   70.2970   -9.0350 O.2   241  GLY241     -0.2863
     76  N         21.3790   71.6500  -14.3420 N.3   259  GLU259     -0.1231
     77  CA        20.4360   72.0690  -13.3420 C.3   259  GLU259      0.1699
     78  C         19.0420   71.6760  -13.7540 C.2   259  GLU259      0.2592
     79  O         18.6110   71.9630  -14.8690 O.2   259  GLU259     -0.2718
     80  CB        20.4940   73.5820  -13.1820 C.3   259  GLU259      0.0402
     81  CG        21.6330   74.0420  -12.3480 C.3   259  GLU259      0.1161
     82  CD        21.4930   73.6560  -10.8880 C.2   259  GLU259      0.3649
     83  OE1       20.3730   73.7480  -10.3000 O.co2 259  GLU259     -0.2457
     84  OE2       22.5300   73.2670  -10.3210 O.co2 259  GLU259     -0.2457
     85  N         18.3380   71.0600  -12.8240 N.am  260  MET260     -0.1979
     86  CA        16.9870   70.5710  -13.0280 C.3   260  MET260      0.1605
     87  C         16.0500   71.2530  -12.0270 C.2   260  MET260      0.2287
     88  O         16.4270   71.4760  -10.8760 O.2   260  MET260     -0.2864
     89  CB        17.0040   69.0890  -12.7280 C.3   260  MET260      0.0413
     90  CG        15.8550   68.3730  -13.1870 C.3   260  MET260      0.0598
     91  SD        16.0920   66.6260  -13.0360 S.3   260  MET260     -0.1393
     92  CE        17.2100   66.2190  -14.3560 C.3   260  MET260      0.0692
     93  N         13.4600   71.6690   -9.2520 N.3   262  HIS262     -0.1241
     94  CA        13.3030   70.7910   -8.0930 C.3   262  HIS262      0.1621
     95  C         12.2900   69.6840   -8.3320 C.2   262  HIS262      0.2264
     96  O         12.5820   68.5240   -8.0900 O.2   262  HIS262     -0.2867
     97  CB        12.9040   71.5990   -6.8440 C.3   262  HIS262      0.0745
     98  CG        12.4170   70.7540   -5.7100 C.ar  262  HIS262      0.0817
     99  ND1       13.2740   70.0800   -4.8600 N.ar  262  HIS262     -0.2268
    100  CD2       11.1630   70.4650   -5.2890 C.ar  262  HIS262      0.1154
    101  CE1       12.5660   69.4390   -3.9490 C.ar  262  HIS262      0.1986
    102  NE2       11.2810   69.6530   -4.1900 N.ar  262  HIS262     -0.2212
    103  N         13.4670   66.8470  -10.3380 N.3   265  THR265     -0.1218
    104  CA        14.4410   65.9630   -9.6990 C.3   265  THR265      0.1862
    105  C         13.8070   64.7840   -8.9810 C.2   265  THR265      0.2287
    106  O         14.4460   63.7510   -8.7970 O.2   265  THR265     -0.2866
    107  CB        15.3580   66.6860   -8.7190 C.3   265  THR265      0.1770
    108  OG1       14.6020   67.0990   -7.5750 O.3   265  THR265     -0.2211
    109  CG2       16.0600   67.8610   -9.3730 C.3   265  THR265      0.0375
    110  N         14.8760   60.7810   -7.8220 N.3   269  ILE269     -0.1245
    111  CA        15.1500   60.4030   -6.4670 C.3   269  ILE269      0.1561
    112  C         14.2680   59.2310   -6.1000 C.2   269  ILE269      0.2260
    113  O         14.7870   58.1890   -5.6760 O.2   269  ILE269     -0.2867
    114  CB        14.9730   61.5840   -5.4620 C.3   269  ILE269      0.0252
    115  CG1       15.9990   62.6900   -5.7620 C.3   269  ILE269      0.0019
    116  CG2       15.0400   61.0730   -3.9870 C.3   269  ILE269      0.0019
    117  CD1       15.6460   64.0590   -5.1110 C.3   269  ILE269      0.0001
    118  N         29.6880   64.7550   -0.9860 N.3   279  TYR279     -0.1241
    119  CA        30.4390   65.8430   -0.3820 C.3   279  TYR279      0.1605
    120  C         31.9460   65.5250   -0.4530 C.2   279  TYR279      0.2264
    121  O         32.3410   64.4520   -0.0410 O.2   279  TYR279     -0.2867
    122  CB        29.9910   66.0350    1.0630 C.3   279  TYR279      0.0534
    123  CG        28.5420   66.4200    1.1690 C.ar  279  TYR279     -0.0201
    124  CD1       28.0550   67.5310    0.4970 C.ar  279  TYR279     -0.0009
    125  CD2       27.6540   65.6770    1.9300 C.ar  279  TYR279     -0.0009
    126  CE1       26.7160   67.8980    0.5960 C.ar  279  TYR279      0.0417
    127  CE2       26.2980   66.0320    2.0240 C.ar  279  TYR279      0.0417
    128  CZ        25.8490   67.1350    1.3560 C.ar  279  TYR279      0.1957
    129  OH        24.5500   67.5050    1.4430 O.3   279  TYR279     -0.2866
    130  N         25.3480   68.9200    9.1990 N.3   288  LEU288     -0.1245
    131  CA        25.0920   68.6930    7.7720 C.3   288  LEU288      0.1561
    132  C         24.2590   67.3990    7.5360 C.2   288  LEU288      0.2260
    133  O         23.4870   67.3120    6.5910 O.2   288  LEU288     -0.2867
    134  CB        26.3910   68.6530    6.9710 C.3   288  LEU288      0.0270
    135  CG        26.2530   68.5610    5.4430 C.3   288  LEU288      0.0019
    136  CD1       25.2450   69.6250    4.9300 C.3   288  LEU288      0.0001
    137  CD2       27.6380   68.8090    4.8230 C.3   288  LEU288      0.0001
    138  N         20.9930   68.8840    7.9840 N.3   291  SER291     -0.1202
    139  CA        20.6600   70.0330    7.1870 C.3   291  SER291      0.2020
    140  C         20.8280   69.7890    5.6810 C.2   291  SER291      0.2619
    141  O         20.2940   70.5550    4.8840 O.2   291  SER291     -0.2717
    142  CB        21.4970   71.2280    7.6350 C.3   291  SER291      0.2103
    143  OG        22.8540   70.9730    7.3220 O.3   291  SER291     -0.2182
    144  N         21.5090   68.7130    5.3010 N.am  292  SER292     -0.1937
    145  CA        21.6170   68.3550    3.9110 C.3   292  SER292      0.2055
    146  C         20.2340   68.1880    3.2840 C.2   292  SER292      0.2643
    147  O         19.4110   67.3590    3.7220 O.2   292  SER292     -0.2714
    148  CB        22.4360   67.0650    3.7140 C.3   292  SER292      0.2130
    149  OG        22.3530   66.6780    2.3430 O.3   292  SER292     -0.2179
    150  N         19.9970   68.9700    2.2420 N.am  293  MET293     -0.1962
    151  CA        18.7130   68.9270    1.5370 C.3   293  MET293      0.1736
    152  C         18.5500   67.6830    0.6930 C.2   293  MET293      0.2616
    153  O         17.5210   67.0220    0.7300 O.2   293  MET293     -0.2715
    154  CB        18.5050   70.2100    0.7030 C.3   293  MET293      0.0427
    155  CG        18.2540   71.4290    1.5950 C.3   293  MET293      0.0599
    156  SD        16.4880   71.7920    1.9510 S.3   293  MET293     -0.1393
    157  CE        15.7540   70.2050    1.9990 C.3   293  MET293      0.0692
    158  N         19.5690   67.3370   -0.0740 N.am  294  LYS294     -0.1977
    159  CA        19.4770   66.1100   -0.8660 C.3   294  LYS294      0.1596
    160  C         19.2690   64.8860    0.0340 C.2   294  LYS294      0.2287
    161  O         18.4840   64.0280   -0.2590 O.2   294  LYS294     -0.2864
    162  CB        20.6950   65.9720   -1.7940 C.3   294  LYS294      0.0298
    163  CG        22.0440   65.6880   -1.0950 C.3   294  LYS294      0.0038
    164  CD        23.2120   65.4970   -2.1030 C.3   294  LYS294      0.0206
    165  CE        23.5700   66.7220   -2.8860 C.3   294  LYS294      0.1093
    166  NZ        24.1220   67.7870   -2.1000 N.3   294  LYS294     -0.1314
    167  N         15.7020   64.6790    1.1660 N.3   297  GLN297     -0.1245
    168  CA        14.8740   64.1900    0.0880 C.3   297  GLN297      0.1566
    169  C         15.0050   62.6980   -0.2040 C.2   297  GLN297      0.2260
    170  O         14.0020   62.0370   -0.5350 O.2   297  GLN297     -0.2867
    171  CB        15.1360   65.0340   -1.1300 C.3   297  GLN297      0.0367
    172  CG        14.5990   66.4310   -0.8700 C.3   297  GLN297      0.0905
    173  CD        14.9520   67.3160   -1.9670 C.2   297  GLN297      0.2608
    174  OE1       14.1830   67.4530   -2.9100 O.2   297  GLN297     -0.2717
    175  NE2       16.1400   67.9270   -1.8910 N.am  297  GLN297     -0.0878
@<TRIPOS>BOND
     1    79    78    2
     2    92    91    1
     3    76    77    1
     4    78    77    1
     5    78    85   am
     6    77    80    1
     7    90    91    1
     8    90    89    1
     9    80    81    1
    10    86    85    1
    11    86    89    1
    12    86    87    1
    13    81    82    1
    14    87    88    2
    15    69    71    1
    16    69    68    1
    17    72    73    1
    18    72    66   am
    19    65    64    1
    20    65    68    1
    21    65    66    1
    22    70    68    1
    23    73    74    1
    24    82    84   ar
    25    82    83   ar
    26    66    67    2
    27   103   104    1
    28    74    75    2
    29   104   105    1
    30   104   107    1
    31   109   107    1
    32    93    94    1
    33    11     9    1
    34   105   106    2
    35   107   108    1
    36     1     2    1
    37    95    94    1
    38    95    96    2
    39    94    97    1
    40     9     8    2
    41     9    10    1
    42   110   111    1
    43     8     7    1
    44    44    43    1
    45     2     5    1
    46     2     3    1
    47     5     6    1
    48    54    55    1
    49    54    51    1
    50    45    43    1
    51    40    43    1
    52    40    39    1
    53    40    41    1
    54    97    98    1
    55    46    41   am
    56    46    47    1
    57     7     6    1
    58   111   112    1
    59   111   114    1
    60    18    17    1
    61    18    19    1
    62    49    48    2
    63    51    50    1
    64    51    52    1
    65    48    47    1
    66    48    50   am
    67     3    12   am
    68     3     4    2
    69    41    42    2
    70   112   113    2
    71    17    16    1
    72    12    13    1
    73   115   114    1
    74   115   117    1
    75    98   100   ar
    76    98    99   ar
    77   114   116    1
    78    19    20    2
    79   100   102   ar
    80    53    52    2
    81    52    56   am
    82    99   101   ar
    83    16    13    1
    84    21    20    1
    85    13    14    1
    86    20    22    1
    87   102   101   ar
    88    56    57    1
    89    15    14    2
    90    14    23   am
    91    38    36   ar
    92    38    37   ar
    93   174   173    2
    94   165   164    1
    95   165   166    1
    96    36    34   ar
    97    57    58    1
    98    57    60    1
    99    58    59    2
   100    23    24    1
   101   164   163    1
   102    37    35   ar
   103   173   175   am
   104   173   172    1
   105   162   163    1
   106   162   159    1
   107    34    33   ar
   108    60    61    1
   109   171   172    1
   110   171   168    1
   111    24    27    1
   112    24    25    1
   113   118   119    1
   114    35    33   ar
   115   159   158    1
   116   159   160    1
   117    33    32    1
   118    63    62    1
   119   170   169    2
   120    26    25    2
   121   120   119    1
   122   120   121    2
   123   119   122    1
   124   161   160    2
   125   169   168    1
   126    62    61    1
   127   158   152   am
   128    28    29    1
   129   168   167    1
   130    29    32    1
   131    29    30    1
   132   124   126   ar
   133   124   123   ar
   134   126   128   ar
   135   152   153    2
   136   152   151    1
   137   154   151    1
   138   154   155    1
   139   122   123    1
   140   123   125   ar
   141   128   129    1
   142   128   127   ar
   143    31    30    2
   144   151   150    1
   145   155   156    1
   146   125   127   ar
   147   156   157    1
   148   150   146   am
   149   149   148    1
   150   146   147    2
   151   146   145    1
   152   148   145    1
   153   145   144    1
   154   137   135    1
   155   141   140    2
   156   136   135    1
   157   144   140   am
   158   135   134    1
   159   140   139    1
   160   133   132    2
   161   134   131    1
   162   139   142    1
   163   139   138    1
   164   143   142    1
   165   132   131    1
   166   131   130    1
