@<TRIPOS>MOLECULE
tmp/2q78F00.pdb
 87 86 0 0 0
SMALL
GASTEIGER

@<TRIPOS>ATOM
      1  N          0.9710  -12.5880  -82.4300 N.3    24  TRP24      -0.1241
      2  CA         2.0770  -12.7520  -81.5020 C.3    24  TRP24       0.1605
      3  C          1.7850  -13.8980  -80.5140 C.2    24  TRP24       0.2264
      4  O          0.8550  -13.8130  -79.7060 O.2    24  TRP24      -0.2867
      5  CB         2.2900  -11.4430  -80.7540 C.3    24  TRP24       0.0550
      6  CG         3.3650  -11.5020  -79.7560 C.ar   24  TRP24       0.0003
      7  CD1        4.6280  -12.0090  -79.9270 C.ar   24  TRP24       0.0946
      8  CD2        3.3080  -11.0000  -78.4200 C.ar   24  TRP24       0.0152
      9  NE1        5.3520  -11.8610  -78.7710 N.ar   24  TRP24      -0.2442
     10  CE2        4.5640  -11.2490  -77.8280 C.ar   24  TRP24       0.0810
     11  CE3        2.3110  -10.3720  -77.6590 C.ar   24  TRP24       0.0012
     12  CZ2        4.8490  -10.8990  -76.5090 C.ar   24  TRP24       0.0191
     13  CZ3        2.5920  -10.0250  -76.3520 C.ar   24  TRP24       0.0001
     14  CH2        3.8520  -10.2900  -75.7900 C.ar   24  TRP24       0.0015
     15  N          4.4920  -15.7760  -78.7460 N.3    26  GLU26      -0.1245
     16  CA         5.6370  -16.1140  -77.9070 C.3    26  GLU26       0.1567
     17  C          5.2170  -16.2820  -76.4550 C.2    26  GLU26       0.2260
     18  O          5.7120  -17.1710  -75.7570 O.2    26  GLU26      -0.2867
     19  CB         6.7080  -15.0230  -78.0070 C.3    26  GLU26       0.0388
     20  CG         7.3350  -14.9040  -79.3790 C.3    26  GLU26       0.1160
     21  CD         8.3240  -13.7510  -79.4930 C.2    26  GLU26       0.3649
     22  OE1        8.2390  -12.8020  -78.7020 O.co2  26  GLU26      -0.2457
     23  OE2        9.1830  -13.7830  -80.3950 O.co2  26  GLU26      -0.2457
     24  N         -2.4190   -9.4740  -80.3010 N.3    34  LEU34      -0.1231
     25  CA        -1.6090   -8.4140  -80.9020 C.3    34  LEU34       0.1693
     26  C         -0.8830   -8.9900  -82.0970 C.2    34  LEU34       0.2592
     27  O         -0.6250  -10.1990  -82.1240 O.2    34  LEU34      -0.2718
     28  CB        -0.5680   -7.8900  -79.9150 C.3    34  LEU34       0.0284
     29  CG        -1.0640   -7.3040  -78.5990 C.3    34  LEU34       0.0019
     30  CD1        0.1350   -6.9500  -77.7340 C.3    34  LEU34       0.0001
     31  CD2       -1.9530   -6.0920  -78.8450 C.3    34  LEU34       0.0001
     32  N         -0.5470   -8.1300  -83.0660 N.am   35  VAL35      -0.1966
     33  CA         0.1290   -8.5730  -84.2840 C.3    35  VAL35       0.1727
     34  C          1.6320   -8.6130  -84.0340 C.2    35  VAL35       0.2616
     35  O          2.1860   -7.7180  -83.4000 O.2    35  VAL35      -0.2715
     36  CB        -0.1980   -7.6900  -85.5210 C.3    35  VAL35       0.0290
     37  CG1        0.6460   -8.1290  -86.7310 C.3    35  VAL35       0.0023
     38  CG2       -1.6810   -7.7920  -85.8700 C.3    35  VAL35       0.0023
     39  N          2.2720   -9.6720  -84.5140 N.am   36  ALA36      -0.1963
     40  CA         3.6880   -9.8740  -84.3000 C.3    36  ALA36       0.1728
     41  C          4.4620   -8.8680  -85.1540 C.2    36  ALA36       0.2617
     42  O          4.0070   -8.4680  -86.2310 O.2    36  ALA36      -0.2715
     43  CB         4.0810  -11.3250  -84.6460 C.3    36  ALA36       0.0334
     44  N          5.6250   -8.4520  -84.6570 N.am   37  THR37      -0.1937
     45  CA         6.5400   -7.5570  -85.3830 C.3    37  THR37       0.2028
     46  C          6.9270   -8.1590  -86.7200 C.2    37  THR37       0.2642
     47  O          6.8520   -7.5010  -87.7510 O.2    37  THR37      -0.2714
     48  CB         7.8100   -7.2990  -84.5440 C.3    37  THR37       0.1808
     49  OG1        7.4210   -6.7390  -83.2870 O.3    37  THR37      -0.2208
     50  CG2        8.7710   -6.3400  -85.2360 C.3    37  THR37       0.0379
     51  N          7.3220   -9.4240  -86.7020 N.am   38  SER38      -0.1949
     52  CA         7.7680  -10.1020  -87.9210 C.3    38  SER38       0.1924
     53  C          6.6620  -10.1910  -88.9810 C.2    38  SER38       0.2314
     54  O          6.9250  -10.0600  -90.1820 O.2    38  SER38      -0.2863
     55  CB         8.2750  -11.5010  -87.5820 C.3    38  SER38       0.2116
     56  OG         7.2410  -12.2810  -87.0120 O.3    38  SER38      -0.2180
     57  N          8.9020   -0.8510  -84.3060 N.3    71  HIS71      -0.1226
     58  CA         7.5220   -1.1950  -83.9700 C.3    71  HIS71       0.1752
     59  C          7.0630   -0.3370  -82.7910 C.2    71  HIS71       0.2596
     60  O          7.3580   -0.6340  -81.6320 O.2    71  HIS71      -0.2718
     61  CB         7.4150   -2.6870  -83.6280 C.3    71  HIS71       0.0759
     62  CG         6.0020   -3.1940  -83.5590 C.ar   71  HIS71       0.0818
     63  ND1        5.6950   -4.5380  -83.5070 N.ar   71  HIS71      -0.2268
     64  CD2        4.8140   -2.5380  -83.5600 C.ar   71  HIS71       0.1154
     65  CE1        4.3810   -4.6860  -83.4590 C.ar   71  HIS71       0.1986
     66  NE2        3.8230   -3.4870  -83.4820 N.ar   71  HIS71      -0.2212
     67  N          6.3210    0.7220  -83.0900 N.am   72  VAL72      -0.1966
     68  CA         6.1260    1.8080  -82.1260 C.3    72  VAL72       0.1727
     69  C          4.8430    1.7170  -81.3210 C.2    72  VAL72       0.2616
     70  O          4.8080    2.1870  -80.1920 O.2    72  VAL72      -0.2715
     71  CB         6.2110    3.1920  -82.8080 C.3    72  VAL72       0.0290
     72  CG1        7.5820    3.3620  -83.4410 C.3    72  VAL72       0.0023
     73  CG2        5.0950    3.3730  -83.8430 C.3    72  VAL72       0.0023
     74  N          3.8050    1.1160  -81.8970 N.am   73  LYS73      -0.1963
     75  CA         2.5320    0.8890  -81.2060 C.3    73  LYS73       0.1728
     76  C          2.0580   -0.5480  -81.4160 C.2    73  LYS73       0.2616
     77  O          2.2730   -1.1360  -82.4810 O.2    73  LYS73      -0.2715
     78  CB         1.4590    1.8570  -81.7320 C.3    73  LYS73       0.0311
     79  CG         0.1760    1.8690  -80.9250 C.3    73  LYS73       0.0038
     80  CD        -0.9970    2.4610  -81.7280 C.3    73  LYS73       0.0206
     81  CE        -2.2780    2.4520  -80.8940 C.3    73  LYS73       0.1093
     82  NZ        -2.2550    3.6210  -79.9580 N.3    73  LYS73      -0.1314
     83  N          1.4140   -1.0990  -80.3920 N.am   74  ALA74      -0.1977
     84  CA         0.7310   -2.4030  -80.4720 C.3    74  ALA74       0.1597
     85  C         -0.5820   -2.2960  -81.2650 C.2    74  ALA74       0.2287
     86  O         -1.2590   -1.2740  -81.2160 O.2    74  ALA74      -0.2864
     87  CB         0.4590   -2.9370  -79.0750 C.3    74  ALA74       0.0319
@<TRIPOS>BOND
     1    54    53    2
     2    53    52    1
     3    52    55    1
     4    52    51    1
     5    47    46    2
     6    55    56    1
     7    37    36    1
     8    46    51   am
     9    46    45    1
    10    42    41    2
    11    38    36    1
    12    36    33    1
    13    45    44    1
    14    45    48    1
    15    50    48    1
    16    41    44   am
    17    41    40    1
    18    43    40    1
    19    48    49    1
    20    39    40    1
    21    39    34   am
    22    57    58    1
    23    33    34    1
    24    33    32    1
    25    34    35    2
    26    58    61    1
    27    58    59    1
    28    73    71    1
    29    61    62    1
    30    64    62   ar
    31    64    66   ar
    32    62    63   ar
    33    63    65   ar
    34    66    65   ar
    35    72    71    1
    36    67    59   am
    37    67    68    1
    38    32    26   am
    39    71    68    1
    40    59    60    2
    41    77    76    2
    42     1     2    1
    43    68    69    1
    44    27    26    2
    45    26    25    1
    46    74    69   am
    47    74    75    1
    48    78    75    1
    49    78    79    1
    50    80    79    1
    51    80    81    1
    52     2     5    1
    53     2     3    1
    54    76    75    1
    55    76    83   am
    56    69    70    2
    57    85    86    2
    58    85    84    1
    59    25    24    1
    60    25    28    1
    61    81    82    1
    62     5     6    1
    63     3     4    2
    64    84    83    1
    65    84    87    1
    66    23    21   ar
    67     7     6   ar
    68     7     9   ar
    69    28    29    1
    70     6     8   ar
    71    21    20    1
    72    21    22   ar
    73    20    19    1
    74    31    29    1
    75     9    10   ar
    76    15    16    1
    77    29    30    1
    78     8    10   ar
    79     8    11   ar
    80    19    16    1
    81    16    17    1
    82    10    12   ar
    83    11    13   ar
    84    12    14   ar
    85    17    18    2
    86    13    14   ar
