@<TRIPOS>MOLECULE
tmp/2q78F01.pdb
 187 182 0 0 0
SMALL
GASTEIGER

@<TRIPOS>ATOM
      1  N         20.3580   -1.3430 -115.8050 N.3     4  ASP4       -0.1225
      2  CA        19.9290   -0.1690 -115.0650 C.3     4  ASP4        0.1805
      3  C         18.4910   -0.3860 -114.6410 C.2     4  ASP4        0.2597
      4  O         17.6950   -0.8890 -115.4270 O.2     4  ASP4       -0.2718
      5  CB        20.0790    1.0910 -115.9430 C.3     4  ASP4        0.1424
      6  CG        19.7200    2.3980 -115.2090 C.2     4  ASP4        0.3668
      7  OD1       18.4950    2.7390 -115.2010 O.co2   4  ASP4       -0.2456
      8  OD2       20.6530    3.1000 -114.6790 O.co2   4  ASP4       -0.2456
      9  N         18.1700   -0.0090 -113.3980 N.am    5  PHE5       -0.1976
     10  CA        16.8050   -0.1020 -112.8920 C.3     5  PHE5        0.1639
     11  C         16.2150    1.2340 -112.4180 C.2     5  PHE5        0.2290
     12  O         15.2340    1.2380 -111.6660 O.2     5  PHE5       -0.2864
     13  CB        16.7330   -1.1790 -111.7970 C.3     5  PHE5        0.0560
     14  CG        17.1890   -2.5680 -112.2530 C.ar    5  PHE5       -0.0200
     15  CD1       16.3580   -3.3750 -112.9930 C.ar    5  PHE5       -0.0042
     16  CD2       18.4290   -3.0640 -111.9010 C.ar    5  PHE5       -0.0042
     17  CE1       16.7570   -4.6460 -113.3760 C.ar    5  PHE5       -0.0003
     18  CE2       18.8250   -4.3200 -112.2810 C.ar    5  PHE5       -0.0003
     19  CZ        17.9950   -5.1090 -113.0300 C.ar    5  PHE5       -0.0000
     20  N          6.4330   -6.8690  -90.6770 N.3    41  ILE41      -0.1231
     21  CA         7.5320   -6.7090  -91.5930 C.3    41  ILE41       0.1692
     22  C          7.2100   -7.4110  -92.9100 C.2    41  ILE41       0.2592
     23  O          7.4010   -6.8420  -93.9890 O.2    41  ILE41      -0.2718
     24  CB         8.8770   -7.1990  -90.9700 C.3    41  ILE41       0.0266
     25  CG1        9.3210   -6.2260  -89.8660 C.3    41  ILE41       0.0019
     26  CG2        9.9640   -7.3010  -92.0280 C.3    41  ILE41       0.0020
     27  CD1       10.5090   -6.7220  -89.0230 C.3    41  ILE41       0.0001
     28  N          6.6620   -8.6200  -92.8080 N.am   42  GLY42      -0.1957
     29  CA         6.2500   -9.3710  -93.9850 C.3    42  GLY42       0.1869
     30  C          5.1320   -8.6700  -94.7360 C.2    42  GLY42       0.2309
     31  O          5.1200   -8.6480  -95.9550 O.2    42  GLY42      -0.2863
     32  N          6.8790   -5.8690  -96.6620 N.3    45  HIS45      -0.1226
     33  CA         7.6680   -6.3910  -97.7610 C.3    45  HIS45       0.1752
     34  C          6.7690   -6.7780  -98.9020 C.2    45  HIS45       0.2595
     35  O          7.0810   -6.5240 -100.0710 O.2    45  HIS45      -0.2718
     36  CB         8.4680   -7.6310  -97.3370 C.3    45  HIS45       0.0759
     37  CG         9.6260   -7.3310  -96.4440 C.ar   45  HIS45       0.0818
     38  ND1       10.3970   -8.3200  -95.8820 N.ar   45  HIS45      -0.2268
     39  CD2       10.1260   -6.1550  -95.9920 C.ar   45  HIS45       0.1154
     40  CE1       11.3510   -7.7660  -95.1530 C.ar   45  HIS45       0.1986
     41  NE2       11.2090   -6.4530  -95.2080 N.ar   45  HIS45      -0.2212
     42  N          5.6580   -7.4170  -98.5690 N.am   46  ARG46      -0.1980
     43  CA         4.7690   -7.9350  -99.5910 C.3    46  ARG46       0.1597
     44  C          4.2880   -6.8060 -100.4730 C.2    46  ARG46       0.2287
     45  O          4.2420   -6.9450 -101.7060 O.2    46  ARG46      -0.2864
     46  CB         3.6080   -8.6870  -98.9730 C.3    46  ARG46       0.0334
     47  CG         2.7630   -9.4660  -99.9620 C.3    46  ARG46       0.0492
     48  CD         1.6520  -10.2440  -99.2320 C.3    46  ARG46       0.2205
     49  NE         2.2370  -11.1220  -98.2130 N.pl3  46  ARG46      -0.0865
     50  CZ         2.7900  -12.3170  -98.4530 C.cat  46  ARG46       0.5346
     51  NH1        2.8300  -12.8290  -99.6870 N.pl3  46  ARG46       0.1354
     52  NH2        3.3080  -13.0060  -97.4380 N.pl3  46  ARG46       0.1354
     53  N         13.0100  -11.2960 -114.2410 N.3    60  TYR60      -0.1241
     54  CA        13.5910  -10.8710 -112.9670 C.3    60  TYR60       0.1605
     55  C         12.6400  -11.0300 -111.8000 C.2    60  TYR60       0.2264
     56  O         11.3960  -10.9650 -111.9440 O.2    60  TYR60      -0.2867
     57  CB        14.0630   -9.4140 -113.0140 C.3    60  TYR60       0.0534
     58  CG        15.3130   -9.2240 -113.8230 C.ar   60  TYR60      -0.0201
     59  CD1       15.2710   -9.2350 -115.2080 C.ar   60  TYR60      -0.0009
     60  CD2       16.5400   -9.0830 -113.2130 C.ar   60  TYR60      -0.0009
     61  CE1       16.4170   -9.0960 -115.9510 C.ar   60  TYR60       0.0417
     62  CE2       17.6940   -8.9310 -113.9490 C.ar   60  TYR60       0.0417
     63  CZ        17.6200   -8.9350 -115.3080 C.ar   60  TYR60       0.1957
     64  OH        18.7450   -8.7930 -116.0300 O.3    60  TYR60      -0.2866
     65  N         12.9330  -10.1470 -107.1910 N.3    62  ALA62      -0.1231
     66  CA        13.6080   -9.3340 -106.1830 C.3    62  ALA62       0.1694
     67  C         13.3260   -9.9060 -104.8040 C.2    62  ALA62       0.2592
     68  O         12.1930  -10.2220 -104.4820 O.2    62  ALA62      -0.2718
     69  CB        13.1410   -7.9070 -106.2620 C.3    62  ALA62       0.0304
     70  N         14.3730  -10.0280 -104.0060 N.am   63  VAL63      -0.1966
     71  CA        14.3340  -10.6830 -102.7230 C.3    63  VAL63       0.1727
     72  C         14.9350   -9.7320 -101.6990 C.2    63  VAL63       0.2616
     73  O         15.8590   -9.0150 -101.9920 O.2    63  VAL63      -0.2715
     74  CB        15.1800  -11.9870 -102.7210 C.3    63  VAL63       0.0290
     75  CG1       14.5460  -13.0480 -103.6020 C.3    63  VAL63       0.0023
     76  CG2       16.6110  -11.6900 -103.1780 C.3    63  VAL63       0.0023
     77  N         14.4120   -9.7550 -100.4860 N.am   64  VAL64      -0.1963
     78  CA        14.9230   -8.8840  -99.4420 C.3    64  VAL64       0.1727
     79  C         16.3080   -9.3400  -98.9900 C.2    64  VAL64       0.2616
     80  O         16.5140  -10.5110  -98.7100 O.2    64  VAL64      -0.2715
     81  CB        13.9150   -8.8200  -98.2610 C.3    64  VAL64       0.0290
     82  CG1       14.4950   -8.0370  -97.0920 C.3    64  VAL64       0.0023
     83  CG2       12.6000   -8.1760  -98.7560 C.3    64  VAL64       0.0023
     84  N         17.2600   -8.4170  -98.9450 N.am   65  VAL65      -0.1977
     85  CA        18.5820   -8.6920  -98.3900 C.3    65  VAL65       0.1596
     86  C         18.8970   -7.8950  -97.1330 C.2    65  VAL65       0.2287
     87  O         19.8090   -8.2530  -96.3770 O.2    65  VAL65      -0.2864
     88  CB        19.6950   -8.4610  -99.4220 C.3    65  VAL65       0.0276
     89  CG1       19.5490   -9.4620 -100.5470 C.3    65  VAL65       0.0022
     90  CG2       19.7210   -6.9820  -99.9190 C.3    65  VAL65       0.0022
     91  N         22.8340    0.1550 -108.5310 N.3    92  GLY92      -0.1210
     92  CA        23.0640   -1.1720 -109.1510 C.3    92  GLY92       0.1956
     93  C         21.7900   -2.0220 -109.0890 C.2    92  GLY92       0.2612
     94  O         20.7060   -1.5320 -109.3630 O.2    92  GLY92      -0.2717
     95  N         21.9030   -3.2770 -108.6950 N.am   93  ASN93      -0.1960
     96  CA        20.7270   -4.1160 -108.5200 C.3    93  ASN93       0.1819
     97  C         20.0680   -4.0800 -107.1360 C.2    93  ASN93       0.2621
     98  O         19.3290   -5.0070 -106.7880 O.2    93  ASN93      -0.2715
     99  CB        21.0240   -5.5570 -108.9380 C.3    93  ASN93       0.1195
    100  CG        21.7200   -6.3390 -107.8700 C.2    93  ASN93       0.2630
    101  OD1       22.4420   -5.7710 -107.0540 O.2    93  ASN93      -0.2716
    102  ND2       21.4680   -7.6530 -107.8330 N.am   93  ASN93      -0.0877
    103  N         20.3070   -2.9990 -106.3800 N.am   94  ARG94      -0.1977
    104  CA        19.7010   -2.7730 -105.0500 C.3    94  ARG94       0.1597
    105  C         18.6660   -1.6900 -105.1180 C.2    94  ARG94       0.2287
    106  O         18.9770   -0.5970 -105.5300 O.2    94  ARG94      -0.2864
    107  CB        20.7480   -2.3580 -104.0170 C.3    94  ARG94       0.0334
    108  CG        21.8670   -3.4000 -103.8060 C.3    94  ARG94       0.0492
    109  CD        21.2770   -4.7360 -103.5380 C.3    94  ARG94       0.2205
    110  NE        22.1170   -5.7000 -102.8060 N.pl3  94  ARG94      -0.0865
    111  CZ        22.6710   -6.7860 -103.3320 C.cat  94  ARG94       0.5346
    112  NH1       22.5720   -7.0520 -104.6230 N.pl3  94  ARG94       0.1354
    113  NH2       23.3550   -7.6100 -102.5550 N.pl3  94  ARG94       0.1354
    114  N         15.8520   -4.6190 -101.3840 N.3   114  ARG114     -0.1231
    115  CA        15.7790   -5.8340 -102.1800 C.3   114  ARG114      0.1694
    116  C         16.9050   -5.8840 -103.2250 C.2   114  ARG114      0.2592
    117  O         17.2830   -4.8580 -103.7920 O.2   114  ARG114     -0.2718
    118  CB        14.4560   -5.8830 -102.9150 C.3   114  ARG114      0.0321
    119  CG        13.2620   -6.1470 -102.0180 C.3   114  ARG114      0.0489
    120  CD        12.0890   -6.6810 -102.8170 C.3   114  ARG114      0.2205
    121  NE        10.9240   -6.8550 -101.9560 N.pl3 114  ARG114     -0.0865
    122  CZ        10.4190   -8.0240 -101.5840 C.cat 114  ARG114      0.5346
    123  NH1       10.9720   -9.1780 -101.9620 N.pl3 114  ARG114      0.1354
    124  NH2        9.3550   -8.0320 -100.8060 N.pl3 114  ARG114      0.1354
    125  N         17.4030   -7.0900 -103.4820 N.am  115  ALA115     -0.1966
    126  CA        18.3110   -7.3800 -104.6150 C.3   115  ALA115      0.1728
    127  C         17.4770   -7.8710 -105.7910 C.2   115  ALA115      0.2616
    128  O         16.6800   -8.8300 -105.6530 O.2   115  ALA115     -0.2715
    129  CB        19.3330   -8.4350 -104.2260 C.3   115  ALA115      0.0334
    130  N         17.6140   -7.1840 -106.9290 N.am  116  ILE116     -0.1963
    131  CA        16.9880   -7.5940 -108.1750 C.3   116  ILE116      0.1727
    132  C         17.9010   -8.5610 -108.8980 C.2   116  ILE116      0.2616
    133  O         19.0740   -8.2590 -109.1910 O.2   116  ILE116     -0.2715
    134  CB        16.7210   -6.4350 -109.1050 C.3   116  ILE116      0.0290
    135  CG1       15.7640   -5.4320 -108.4530 C.3   116  ILE116      0.0022
    136  CG2       16.1720   -6.9600 -110.4330 C.3   116  ILE116      0.0023
    137  CD1       15.8790   -4.0470 -108.9830 C.3   116  ILE116      0.0001
    138  N         17.3430   -9.7240 -109.1930 N.am  117  VAL117     -0.1964
    139  CA        18.1170  -10.8770 -109.6010 C.3   117  VAL117      0.1712
    140  C         17.3160  -11.6580 -110.6310 C.2   117  VAL117      0.2458
    141  O         16.0960  -11.7720 -110.4840 O.2   117  VAL117     -0.2730
    142  CB        18.3960  -11.7250 -108.3350 C.3   117  VAL117      0.0289
    143  CG1       18.0610  -13.1640 -108.5540 C.3   117  VAL117      0.0023
    144  CG2       19.8210  -11.5450 -107.8670 C.3   117  VAL117      0.0023
    145  N         17.9800  -12.1880 -111.6840 N.am  118  PRO118     -0.2727
    146  CA        17.2950  -13.0850 -112.6110 C.3   118  PRO118      0.1402
    147  C         16.7880  -14.2990 -111.8830 C.2   118  PRO118      0.2269
    148  O         17.5040  -14.8420 -111.0370 O.2   118  PRO118     -0.2865
    149  CB        18.3980  -13.4950 -113.6030 C.3   118  PRO118      0.0296
    150  CG        19.4160  -12.4370 -113.5190 C.3   118  PRO118      0.0237
    151  CD        19.3800  -11.9760 -112.0810 C.3   118  PRO118      0.0939
    152  N         19.0060  -17.1950 -112.0900 N.3   121  LYS121     -0.1231
    153  CA        20.1890  -17.0930 -111.2280 C.3   121  LYS121      0.1693
    154  C         19.8890  -17.5440 -109.8030 C.2   121  LYS121      0.2591
    155  O         20.6440  -18.3040 -109.2060 O.2   121  LYS121     -0.2718
    156  CB        20.7360  -15.6620 -111.2290 C.3   121  LYS121      0.0285
    157  CG        21.8700  -15.3940 -110.2270 C.3   121  LYS121      0.0035
    158  CD        23.1710  -16.1090 -110.5760 C.3   121  LYS121      0.0206
    159  CE        24.2350  -15.8890 -109.4980 C.3   121  LYS121      0.1093
    160  NZ        25.5830  -16.3140 -109.9870 N.3   121  LYS121     -0.1314
    161  N         18.7680  -17.0850 -109.2800 N.am  122  LEU122     -0.1980
    162  CA        18.3030  -17.4890 -107.9600 C.3   122  LEU122      0.1596
    163  C         18.0120  -19.0120 -107.8940 C.2   122  LEU122      0.2287
    164  O         18.3230  -19.6950 -106.9050 O.2   122  LEU122     -0.2864
    165  CB        17.0700  -16.6430 -107.6020 C.3   122  LEU122      0.0297
    166  CG        16.6880  -16.4320 -106.1350 C.3   122  LEU122      0.0022
    167  CD1       17.8300  -15.8550 -105.3300 C.3   122  LEU122      0.0001
    168  CD2       15.4650  -15.5300 -106.0610 C.3   122  LEU122      0.0001
    169  N         19.5930  -21.2680 -109.7420 N.3   124  ARG124     -0.1231
    170  CA        20.9220  -21.8910 -109.7100 C.3   124  ARG124      0.1694
    171  C         21.5700  -21.8480 -108.3290 C.2   124  ARG124      0.2591
    172  O         22.2330  -22.8100 -107.9290 O.2   124  ARG124     -0.2718
    173  CB        21.8630  -21.3070 -110.7700 C.3   124  ARG124      0.0321
    174  CG        21.7800  -22.0460 -112.0990 C.3   124  ARG124      0.0489
    175  CD        22.7340  -21.5200 -113.1800 C.3   124  ARG124      0.2205
    176  NE        22.0920  -20.4710 -113.9730 N.pl3 124  ARG124     -0.0865
    177  CZ        22.3920  -19.1740 -113.9310 C.cat 124  ARG124      0.5346
    178  NH1       23.3710  -18.7160 -113.1490 N.pl3 124  ARG124      0.1354
    179  NH2       21.7090  -18.3230 -114.6980 N.pl3 124  ARG124      0.1354
    180  N         21.3760  -20.7550 -107.5980 N.am  125  LEU125     -0.1980
    181  CA        21.9160  -20.6370 -106.2450 C.3   125  LEU125      0.1596
    182  C         21.2240  -21.6590 -105.3330 C.2   125  LEU125      0.2287
    183  O         21.8830  -22.4270 -104.6190 O.2   125  LEU125     -0.2864
    184  CB        21.7390  -19.2160 -105.7060 C.3   125  LEU125      0.0297
    185  CG        22.4680  -18.1010 -106.4660 C.3   125  LEU125      0.0022
    186  CD1       21.9020  -16.7140 -106.1050 C.3   125  LEU125      0.0001
    187  CD2       23.9770  -18.1500 -106.2340 C.3   125  LEU125      0.0001
@<TRIPOS>BOND
     1    64    63    1
     2    61    63   ar
     3    61    59   ar
     4     5     6    1
     5     5     2    1
     6     1     2    1
     7     4     3    2
     8    63    62   ar
     9     6     7   ar
    10     6     8   ar
    11    59    58   ar
    12     2     3    1
    13   179   177    1
    14     3     9   am
    15    53    54    1
    16   176   177    2
    17   176   175    1
    18    62    60   ar
    19   177   178    1
    20    58    60   ar
    21    58    57    1
    22   149   150    1
    23   149   146    1
    24   150   151    1
    25     9    10    1
    26    17    19   ar
    27    17    15   ar
    28   175   174    1
    29    19    18   ar
    30    57    54    1
    31    15    14   ar
    32    54    55    1
    33    10    11    1
    34    10    13    1
    35   146   147    1
    36   146   145    1
    37    11    12    2
    38    18    16   ar
    39    14    16   ar
    40    14    13    1
    41   174   173    1
    42   152   153    1
    43   151   145    1
    44    56    55    2
    45   147   148    2
    46   145   140   am
    47   156   153    1
    48   156   157    1
    49   153   154    1
    50   173   170    1
    51   140   141    2
    52   140   139    1
    53   158   157    1
    54   158   159    1
    55   136   134    1
    56   160   159    1
    57   154   161   am
    58   154   155    2
    59   169   170    1
    60   170   171    1
    61   139   138    1
    62   139   142    1
    63    94    93    2
    64   161   162    1
    65   138   132   am
    66   133   132    2
    67    92    93    1
    68    92    91    1
    69   134   135    1
    70   134   131    1
    71    93    95   am
    72   137   135    1
    73    99    96    1
    74    99   100    1
    75   132   131    1
    76    95    96    1
    77   143   142    1
    78    96    97    1
    79   142   144    1
    80   171   172    2
    81   171   180   am
    82   131   130    1
    83   162   163    1
    84   162   165    1
    85   163   164    2
    86   100   102   am
    87   100   101    2
    88   165   166    1
    89   180   181    1
    90    65    66    1
    91    97    98    2
    92    97   103   am
    93   130   127   am
    94   185   187    1
    95   185   186    1
    96   185   184    1
    97   103   104    1
    98    69    66    1
    99   181   184    1
   100   181   182    1
   101    66    67    1
   102   166   168    1
   103   166   167    1
   104   127   128    2
   105   127   126    1
   106   106   105    2
   107   182   183    2
   108   105   104    1
   109   104   107    1
   110    67    68    2
   111    67    70   am
   112   112   111    1
   113   126   129    1
   114   126   125    1
   115   107   108    1
   116    70    71    1
   117   108   109    1
   118   117   116    2
   119    75    74    1
   120   109   110    1
   121   125   116   am
   122   111   110    2
   123   111   113    1
   124   116   115    1
   125    76    74    1
   126   118   115    1
   127   118   119    1
   128   120   119    1
   129   120   121    1
   130    71    74    1
   131    71    72    1
   132   115   114    1
   133    73    72    2
   134   123   122    1
   135   121   122    2
   136    45    44    2
   137    72    77   am
   138   122   124    1
   139    89    88    1
   140    77    78    1
   141    44    43    1
   142    35    34    2
   143    47    48    1
   144    47    46    1
   145    90    88    1
   146    51    50    1
   147    43    46    1
   148    43    42    1
   149    78    79    1
   150    78    81    1
   151    88    85    1
   152    48    49    1
   153    79    84   am
   154    79    80    2
   155    84    85    1
   156    34    42   am
   157    34    33    1
   158    83    81    1
   159    50    49    2
   160    50    52    1
   161    85    86    1
   162    81    82    1
   163    33    36    1
   164    33    32    1
   165    36    37    1
   166    86    87    2
   167    37    39   ar
   168    37    38   ar
   169    39    41   ar
   170    31    30    2
   171    38    40   ar
   172    41    40   ar
   173    30    29    1
   174    23    22    2
   175    29    28    1
   176    22    28   am
   177    22    21    1
   178    26    24    1
   179    21    24    1
   180    21    20    1
   181    24    25    1
   182    25    27    1
