@<TRIPOS>MOLECULE
tmp/2q7aB01.pdb
 169 159 0 0 0
SMALL
GASTEIGER

@<TRIPOS>ATOM
      1  N         27.2710   19.0940   13.7950 N.3    15  TYR15      -0.1241
      2  CA        27.7750   17.7710   14.1200 C.3    15  TYR15       0.1605
      3  C         28.6530   17.8900   15.3670 C.2    15  TYR15       0.2264
      4  O         28.6610   17.0010   16.2180 O.2    15  TYR15      -0.2867
      5  CB        28.5950   17.2300   12.9460 C.3    15  TYR15       0.0534
      6  CG        28.9820   15.7740   13.0500 C.ar   15  TYR15      -0.0201
      7  CD1       28.0100   14.7750   13.0820 C.ar   15  TYR15      -0.0009
      8  CD2       30.3320   15.3890   13.0960 C.ar   15  TYR15      -0.0009
      9  CE1       28.3650   13.4350   13.1690 C.ar   15  TYR15       0.0417
     10  CE2       30.6950   14.0520   13.1770 C.ar   15  TYR15       0.0417
     11  CZ        29.7070   13.0770   13.2120 C.ar   15  TYR15       0.1957
     12  OH        30.0530   11.7430   13.2960 O.3    15  TYR15      -0.2866
     13  N         27.9930   11.8990   18.1960 N.3    25  ASP25      -0.1239
     14  CA        27.7020   10.8780   17.1980 C.3    25  ASP25       0.1674
     15  C         28.8520    9.8810   17.1490 C.2    25  ASP25       0.2266
     16  O         30.0240   10.2760   17.2070 O.2    25  ASP25      -0.2867
     17  CB        27.4750   11.4950   15.8190 C.3    25  ASP25       0.1410
     18  CG        27.0730   10.4610   14.7790 C.2    25  ASP25       0.3668
     19  OD1       25.9260    9.9670   14.8400 O.co2  25  ASP25      -0.2456
     20  OD2       27.9090   10.1290   13.9040 O.co2  25  ASP25      -0.2456
     21  N         30.1790    8.3880   14.8350 N.3    27  GLY27      -0.1225
     22  CA        31.1030    8.6260   13.7330 C.3    27  GLY27       0.1811
     23  C         32.3980    9.2800   14.1960 C.2    27  GLY27       0.2280
     24  O         33.4550    9.0350   13.6180 O.2    27  GLY27      -0.2866
     25  N         34.9310   11.4250   11.1860 N.3    31  SER31      -0.1217
     26  CA        33.7630   11.5090   10.3030 C.3    31  SER31       0.1889
     27  C         33.1510   12.9120   10.2170 C.2    31  SER31       0.2288
     28  O         32.0210   13.0610    9.7310 O.2    31  SER31      -0.2866
     29  CB        32.6850   10.5190   10.7580 C.3    31  SER31       0.2089
     30  OG        33.2020    9.2010   10.8750 O.3    31  SER31      -0.2183
     31  N         31.5460   14.2940    6.6590 N.3    34  ILE34      -0.1231
     32  CA        30.3010   13.6410    6.2570 C.3    34  ILE34       0.1692
     33  C         29.1930   13.8960    7.2920 C.2    34  ILE34       0.2592
     34  O         28.0500   14.1520    6.9220 O.2    34  ILE34      -0.2718
     35  CB        30.4760   12.1330    5.9250 C.3    34  ILE34       0.0266
     36  CG1       29.1460   11.5380    5.4360 C.3    34  ILE34       0.0019
     37  CG2       31.0500   11.3650    7.1090 C.3    34  ILE34       0.0020
     38  CD1       29.3000   10.3180    4.5660 C.3    34  ILE34       0.0001
     39  N         29.5580   13.8750    8.5730 N.am   35  GLY35      -0.1957
     40  CA        28.6110   14.0990    9.6490 C.3    35  GLY35       0.1869
     41  C         27.9470   15.4610    9.5440 C.2    35  GLY35       0.2309
     42  O         26.7240   15.5670    9.6430 O.2    35  GLY35      -0.2863
     43  N         25.6660   15.6560    6.6140 N.3    38  MET38      -0.1230
     44  CA        24.4640   14.8830    6.9050 C.3    38  MET38       0.1702
     45  C         23.4750   15.7140    7.7110 C.2    38  MET38       0.2592
     46  O         22.2720   15.7100    7.4100 O.2    38  MET38      -0.2718
     47  CB        24.8110   13.5980    7.6460 C.3    38  MET38       0.0401
     48  CG        25.5160   12.5650    6.7800 C.3    38  MET38       0.0596
     49  SD        24.3940   11.3980    5.9830 S.3    38  MET38      -0.1393
     50  CE        25.5160   10.7330    4.7500 C.3    38  MET38       0.0692
     51  N         23.9690   16.4360    8.7210 N.am   39  VAL39      -0.1980
     52  CA        23.0960   17.3060    9.5160 C.3    39  VAL39       0.1595
     53  C         22.5140   18.4350    8.6480 C.2    39  VAL39       0.2287
     54  O         21.3320   18.7800    8.7810 O.2    39  VAL39      -0.2864
     55  CB        23.7860   17.8890   10.7850 C.3    39  VAL39       0.0276
     56  CG1       22.7790   18.6830   11.6170 C.3    39  VAL39       0.0022
     57  CG2       24.3760   16.7730   11.6370 C.3    39  VAL39       0.0022
     58  N         19.8940   17.0630    6.3150 N.3    42  THR42      -0.1203
     59  CA        18.7200   16.5870    7.0440 C.3    42  THR42       0.1994
     60  C         17.8500   17.7190    7.5940 C.2    42  THR42       0.2617
     61  O         16.6160   17.6430    7.5380 O.2    42  THR42      -0.2717
     62  CB        19.1290   15.6190    8.1880 C.3    42  THR42       0.1784
     63  OG1       19.8670   14.5250    7.6250 O.3    42  THR42      -0.2211
     64  CG2       17.8960   15.0720    8.9220 C.3    42  THR42       0.0376
     65  N         18.4950   18.7570    8.1220 N.am   43  VAL43      -0.1979
     66  CA        17.7830   19.8720    8.7370 C.3    43  VAL43       0.1595
     67  C         17.8450   21.1010    7.8280 C.2    43  VAL43       0.2287
     68  O         18.9270   21.5180    7.3980 O.2    43  VAL43      -0.2864
     69  CB        18.3520   20.2080   10.1380 C.3    43  VAL43       0.0276
     70  CG1       17.6350   21.4330   10.7490 C.3    43  VAL43       0.0022
     71  CG2       18.2330   18.9900   11.0770 C.3    43  VAL43       0.0022
     72  N         14.0430   17.0970    6.9460 N.3    64  SER64      -0.1202
     73  CA        13.8830   16.2890    5.7390 C.3    64  SER64       0.2020
     74  C         14.1270   14.8110    6.0680 C.2    64  SER64       0.2618
     75  O         14.5510   14.4790    7.1740 O.2    64  SER64      -0.2717
     76  CB        14.8570   16.7560    4.6450 C.3    64  SER64       0.2103
     77  OG        14.6030   16.0860    3.4050 O.3    64  SER64      -0.2182
     78  N         13.8430   13.9300    5.1080 N.am   65  LEU65      -0.1979
     79  CA        14.2360   12.5160    5.1790 C.3    65  LEU65       0.1596
     80  C         13.5260   11.7060    6.2810 C.2    65  LEU65       0.2287
     81  O         14.0090   10.6560    6.7000 O.2    65  LEU65      -0.2864
     82  CB        15.7730   12.3900    5.2740 C.3    65  LEU65       0.0297
     83  CG        16.5840   12.8760    4.0500 C.3    65  LEU65       0.0022
     84  CD1       18.0210   13.1860    4.4350 C.3    65  LEU65       0.0001
     85  CD2       16.5460   11.8430    2.9070 C.3    65  LEU65       0.0001
     86  N         13.0090    7.9590    6.3920 N.3    68  TYR68      -0.1227
     87  CA        14.2100    7.1510    6.5850 C.3    68  TYR68       0.1736
     88  C         14.7260    7.1500    8.0270 C.2    68  TYR68       0.2596
     89  O         15.7690    6.5670    8.3190 O.2    68  TYR68      -0.2718
     90  CB        15.3090    7.6350    5.6300 C.3    68  TYR68       0.0548
     91  CG        14.8530    7.6100    4.1900 C.ar   68  TYR68      -0.0200
     92  CD1       14.8450    6.4160    3.4680 C.ar   68  TYR68      -0.0009
     93  CD2       14.3870    8.7770    3.5630 C.ar   68  TYR68      -0.0009
     94  CE1       14.3950    6.3750    2.1400 C.ar   68  TYR68       0.0417
     95  CE2       13.9340    8.7520    2.2290 C.ar   68  TYR68       0.0417
     96  CZ        13.9470    7.5460    1.5320 C.ar   68  TYR68       0.1957
     97  OH        13.5180    7.5070    0.2320 O.3    68  TYR68      -0.2866
     98  N         13.9840    7.7960    8.9220 N.am   69  SER69      -0.1952
     99  CA        14.3990    7.9300   10.3150 C.3    69  SER69       0.1924
    100  C         13.2190    7.8530   11.2610 C.2    69  SER69       0.2314
    101  O         12.0670    7.8820   10.8340 O.2    69  SER69      -0.2863
    102  CB        15.1210    9.2640   10.5140 C.3    69  SER69       0.2116
    103  OG        14.2660   10.3440   10.2000 O.3    69  SER69      -0.2180
    104  N         18.2440   10.1930   16.8270 N.3   120  MET120     -0.1245
    105  CA        17.2550    9.4660   16.0380 C.3   120  MET120      0.1570
    106  C         17.9290    8.2900   15.3460 C.2   120  MET120      0.2261
    107  O         19.1410    8.3160   15.1090 O.2   120  MET120     -0.2867
    108  CB        16.5850   10.4000   15.0110 C.3   120  MET120      0.0387
    109  CG        17.4980   10.8380   13.8790 C.3   120  MET120      0.0595
    110  SD        16.7370   12.1060   12.8460 S.3   120  MET120     -0.1393
    111  CE        17.9810   12.2070   11.5530 C.3   120  MET120      0.0692
    112  N         18.5190    6.0830   12.0510 N.3   122  VAL122     -0.1245
    113  CA        18.5090    6.2860   10.6080 C.3   122  VAL122      0.1561
    114  C         18.6130    4.9170    9.9460 C.2   122  VAL122      0.2260
    115  O         19.6580    4.2480   10.0210 O.2   122  VAL122     -0.2867
    116  CB        19.6590    7.2220   10.1560 C.3   122  VAL122      0.0252
    117  CG1       19.6920    7.3320    8.6270 C.3   122  VAL122      0.0019
    118  CG2       19.5200    8.6160   10.8060 C.3   122  VAL122      0.0019
    119  N         18.6920    3.6230    6.7120 N.3   124  PRO124     -0.2102
    120  CA        19.7720    3.2120    5.7890 C.3   124  PRO124      0.1504
    121  C         21.1910    3.2060    6.3690 C.2   124  PRO124      0.2575
    122  O         22.0720    2.5410    5.8180 O.2   124  PRO124     -0.2718
    123  CB        19.6770    4.2300    4.6460 C.3   124  PRO124      0.0282
    124  CG        18.9570    5.3900    5.2200 C.3   124  PRO124      0.0208
    125  CD        18.0120    4.8470    6.2410 C.3   124  PRO124      0.0893
    126  N         21.4050    3.9480    7.4520 N.am  125  MET125     -0.1980
    127  CA        22.6670    3.9230    8.1850 C.3   125  MET125      0.1605
    128  C         22.7890    2.7300    9.1440 C.2   125  MET125      0.2287
    129  O         23.8980    2.3830    9.5720 O.2   125  MET125     -0.2864
    130  CB        22.8290    5.2080    8.9820 C.3   125  MET125      0.0413
    131  CG        23.1610    6.3890    8.1300 C.3   125  MET125      0.0598
    132  SD        23.3300    7.9110    9.0670 S.3   125  MET125     -0.1393
    133  CE        24.6580    7.4710   10.1920 C.3   125  MET125      0.0692
    134  N         21.9630    2.7150   12.2260 N.3   127  ARG127     -0.1245
    135  CA        22.4380    3.2130   13.5290 C.3   127  ARG127      0.1563
    136  C         21.8070    4.5330   13.9140 C.2   127  ARG127      0.2260
    137  O         21.2260    5.2360   13.0630 O.2   127  ARG127     -0.2867
    138  CB        23.9720    3.3410   13.5720 C.3   127  ARG127      0.0307
    139  CG        24.5740    4.5160   12.7910 C.3   127  ARG127      0.0489
    140  CD        26.0770    4.6140   13.1000 C.3   127  ARG127      0.2205
    141  NE        26.7360    5.7420   12.4410 N.pl3 127  ARG127     -0.0865
    142  CZ        26.7480    6.9950   12.8990 C.cat 127  ARG127      0.5346
    143  NH1       26.1040    7.3130   14.0070 N.pl3 127  ARG127      0.1354
    144  NH2       27.3930    7.9420   12.2310 N.pl3 127  ARG127      0.1354
    145  N         22.0620    8.4550   15.3440 N.3   129  VAL129     -0.1231
    146  CA        22.8940    9.6390   15.1490 C.3   129  VAL129      0.1692
    147  C         22.5310   10.6920   16.2140 C.2   129  VAL129      0.2592
    148  O         21.4110   10.6890   16.7480 O.2   129  VAL129     -0.2718
    149  CB        22.6900   10.2580   13.7360 C.3   129  VAL129      0.0266
    150  CG1       23.0730    9.2690   12.6550 C.3   129  VAL129      0.0020
    151  CG2       21.2250   10.7200   13.5250 C.3   129  VAL129      0.0020
    152  N         23.4820   11.5690   16.5270 N.am  130  VAL130     -0.1966
    153  CA        23.3010   12.6180   17.5220 C.3   130  VAL130      0.1727
    154  C         23.8380   13.9150   16.9220 C.2   130  VAL130      0.2616
    155  O         24.9590   13.9320   16.3940 O.2   130  VAL130     -0.2715
    156  CB        24.0630   12.3180   18.8600 C.3   130  VAL130      0.0290
    157  CG1       23.6730   13.3220   19.9420 C.3   130  VAL130      0.0023
    158  CG2       23.7970   10.8930   19.3710 C.3   130  VAL130      0.0023
    159  N         23.0450   14.9860   17.0090 N.am  131  PHE131     -0.1974
    160  CA        23.4050   16.2970   16.4370 C.3   131  PHE131      0.1639
    161  C         22.8730   17.4590   17.2860 C.2   131  PHE131      0.2290
    162  O         22.0230   17.2600   18.1590 O.2   131  PHE131     -0.2864
    163  CB        22.8780   16.4160   15.0000 C.3   131  PHE131      0.0560
    164  CG        21.3900   16.2210   14.8800 C.ar  131  PHE131     -0.0200
    165  CD1       20.5220   17.3160   14.9250 C.ar  131  PHE131     -0.0042
    166  CD2       20.8510   14.9470   14.7270 C.ar  131  PHE131     -0.0042
    167  CE1       19.1500   17.1370   14.8290 C.ar  131  PHE131     -0.0003
    168  CE2       19.4780   14.7590   14.6250 C.ar  131  PHE131     -0.0003
    169  CZ        18.6230   15.8540   14.6810 C.ar  131  PHE131     -0.0000
@<TRIPOS>BOND
     1    97    96    1
     2    96    94   ar
     3    96    95   ar
     4    94    92   ar
     5    95    93   ar
     6    85    83    1
     7    77    76    1
     8    92    91   ar
     9    93    91   ar
    10    83    84    1
    11    83    82    1
    12    91    90    1
    13    38    36    1
    14    76    73    1
    15   123   124    1
    16   123   120    1
    17    50    49    1
    18    78    79    1
    19    78    74   am
    20    79    82    1
    21    79    80    1
    22   124   125    1
    23    36    35    1
    24    90    87    1
    25    73    74    1
    26    73    72    1
    27   120   121    1
    28   120   119    1
    29   122   121    2
    30    35    32    1
    31    35    37    1
    32    49    48    1
    33    74    75    2
    34   125   119    1
    35    32    31    1
    36    32    33    1
    37    80    81    2
    38    58    59    1
    39   121   126   am
    40    86    87    1
    41    87    88    1
    42    43    44    1
    43    48    47    1
    44    44    47    1
    45    44    45    1
    46    34    33    2
    47    59    60    1
    48    59    62    1
    49    33    39   am
    50    68    67    2
    51    46    45    2
    52   126   127    1
    53    61    60    2
    54    60    65   am
    55    63    62    1
    56    45    51   am
    57    67    66    1
    58    88    89    2
    59    88    98   am
    60    65    66    1
    61   131   130    1
    62   131   132    1
    63   127   130    1
    64   127   128    1
    65    62    64    1
    66    39    40    1
    67   117   116    1
    68    53    54    2
    69    53    52    1
    70    51    52    1
    71    66    69    1
    72    98    99    1
    73   132   133    1
    74   128   129    2
    75    52    55    1
    76    41    42    2
    77    41    40    1
    78    28    27    2
    79   114   115    2
    80   114   113    1
    81    69    70    1
    82    69    71    1
    83   116   113    1
    84   116   118    1
    85   103   102    1
    86    27    26    1
    87    26    29    1
    88    26    25    1
    89    99   102    1
    90    99   100    1
    91   113   112    1
    92    29    30    1
    93    55    56    1
    94    55    57    1
    95   101   100    2
    96   111   110    1
    97   134   135    1
    98   144   142    1
    99   141   142    2
   100   141   140    1
   101   150   149    1
   102   139   140    1
   103   139   138    1
   104   110   109    1
   105   142   143    1
   106     5     6    1
   107     5     2    1
   108     6     7   ar
   109     6     8   ar
   110   137   136    2
   111     7     9   ar
   112     8    10   ar
   113     9    11   ar
   114    10    11   ar
   115    11    12    1
   116   151   149    1
   117   135   138    1
   118   135   136    1
   119    24    23    2
   120    22    23    1
   121    22    21    1
   122   149   146    1
   123     1     2    1
   124   109   108    1
   125    20    18   ar
   126     2     3    1
   127   168   169   ar
   128   168   166   ar
   129   169   167   ar
   130   166   164   ar
   131    18    19   ar
   132    18    17    1
   133   167   165   ar
   134   164   165   ar
   135   164   163    1
   136   163   160    1
   137   108   105    1
   138   107   106    2
   139   146   145    1
   140   146   147    1
   141   106   105    1
   142     3     4    2
   143    17    14    1
   144   105   104    1
   145   147   152   am
   146   147   148    2
   147   155   154    2
   148   160   159    1
   149   160   161    1
   150   152   153    1
   151   154   159   am
   152   154   153    1
   153    15    14    1
   154    15    16    2
   155    14    13    1
   156   161   162    2
   157   153   156    1
   158   156   158    1
   159   156   157    1
