@<TRIPOS>MOLECULE
tmp/2q7bA00.pdb
 153 150 0 0 0
SMALL
GASTEIGER

@<TRIPOS>ATOM
      1  N          7.8540   56.1830   20.9570 N.3    26  GLN26      -0.1245
      2  CA         8.2430   57.5440   20.6360 C.3    26  GLN26       0.1566
      3  C          9.4120   58.0510   21.4340 C.2    26  GLN26       0.2260
      4  O         10.3100   58.6830   20.8850 O.2    26  GLN26      -0.2867
      5  CB         7.0820   58.5090   20.8680 C.3    26  GLN26       0.0367
      6  CG         5.9110   58.3110   19.9160 C.3    26  GLN26       0.0905
      7  CD         4.7600   59.2760   20.1560 C.2    26  GLN26       0.2608
      8  OE1        4.5020   59.7100   21.2930 O.2    26  GLN26      -0.2717
      9  NE2        4.0340   59.5930   19.0800 N.am   26  GLN26      -0.0878
     10  N         12.1600   60.7510   20.5990 N.3    32  LEU32      -0.1245
     11  CA        11.5850   61.8780   19.8870 C.3    32  LEU32       0.1561
     12  C         11.0520   62.9880   20.7850 C.2    32  LEU32       0.2260
     13  O         10.7220   64.0610   20.2950 O.2    32  LEU32      -0.2867
     14  CB        10.4500   61.4010   18.9910 C.3    32  LEU32       0.0270
     15  CG        10.8170   60.3530   17.9340 C.3    32  LEU32       0.0019
     16  CD1        9.5590   59.7430   17.3450 C.3    32  LEU32       0.0001
     17  CD2       11.6910   60.9490   16.8520 C.3    32  LEU32       0.0001
     18  N          8.1170   63.4070   22.3710 N.3    34  ILE34      -0.1245
     19  CA         6.7740   63.8220   22.0070 C.3    34  ILE34       0.1561
     20  C          5.9120   63.7980   23.2630 C.2    34  ILE34       0.2260
     21  O          5.8880   62.8140   23.9930 O.2    34  ILE34      -0.2867
     22  CB         6.1470   62.9260   20.9100 C.3    34  ILE34       0.0252
     23  CG1        6.9780   63.0070   19.6290 C.3    34  ILE34       0.0019
     24  CG2        4.7050   63.3570   20.6350 C.3    34  ILE34       0.0019
     25  CD1        6.5800   61.9860   18.5540 C.3    34  ILE34       0.0001
     26  N         -0.7140   65.0580   21.1750 N.3    38  GLN38      -0.1245
     27  CA        -1.5010   64.0320   20.5030 C.3    38  GLN38       0.1566
     28  C         -2.6300   63.6250   21.4240 C.2    38  GLN38       0.2260
     29  O         -2.8410   62.4490   21.7140 O.2    38  GLN38      -0.2867
     30  CB        -0.6160   62.8500   20.1130 C.3    38  GLN38       0.0367
     31  CG         0.2610   62.3600   21.2650 C.3    38  GLN38       0.0905
     32  CD         1.3360   61.3870   20.8630 C.2    38  GLN38       0.2608
     33  OE1        1.4720   61.0340   19.6900 O.2    38  GLN38      -0.2717
     34  NE2        2.1100   60.9260   21.8600 N.am   38  GLN38      -0.0878
     35  N         -5.3700   59.2630    6.5000 N.3    79  VAL79      -0.1231
     36  CA        -4.0420   59.2870    7.0760 C.3    79  VAL79       0.1692
     37  C         -3.8970   58.0500    7.9660 C.2    79  VAL79       0.2592
     38  O         -4.8110   57.6990    8.6950 O.2    79  VAL79      -0.2718
     39  CB        -3.8230   60.5530    7.9710 C.3    79  VAL79       0.0266
     40  CG1       -2.3820   60.6290    8.5000 C.3    79  VAL79       0.0020
     41  CG2       -4.1530   61.8160    7.1940 C.3    79  VAL79       0.0020
     42  N         -2.7420   57.3950    7.8730 N.am   80  LEU80      -0.1966
     43  CA        -2.3860   56.2640    8.7240 C.3    80  LEU80       0.1728
     44  C         -1.6050   56.8880    9.8900 C.2    80  LEU80       0.2616
     45  O         -0.5780   57.5320    9.6760 O.2    80  LEU80      -0.2715
     46  CB        -1.5550   55.2540    7.9280 C.3    80  LEU80       0.0311
     47  CG        -1.2190   53.9050    8.5850 C.3    80  LEU80       0.0022
     48  CD1       -0.9240   52.8530    7.5210 C.3    80  LEU80       0.0001
     49  CD2       -0.0850   54.0290    9.5720 C.3    80  LEU80       0.0001
     50  N         -2.1320   56.7320   11.1060 N.am   81  LYS81      -0.1963
     51  CA        -1.5770   57.3400   12.3070 C.3    81  LYS81       0.1728
     52  C         -1.4650   56.3370   13.4330 C.2    81  LYS81       0.2616
     53  O         -2.0330   55.2510   13.3690 O.2    81  LYS81      -0.2715
     54  CB        -2.5290   58.4370   12.8260 C.3    81  LYS81       0.0311
     55  CG        -2.6660   59.6750   11.9740 C.3    81  LYS81       0.0038
     56  CD        -3.7120   60.6310   12.5370 C.3    81  LYS81       0.0206
     57  CE        -3.3270   61.2810   13.8670 C.3    81  LYS81       0.1093
     58  NZ        -2.1050   62.0790   13.7370 N.3    81  LYS81      -0.1314
     59  N         -0.7440   56.7500   14.4730 N.am   82  LYS82      -0.1963
     60  CA        -0.5740   56.0080   15.7020 C.3    82  LYS82       0.1728
     61  C         -0.2550   54.5380   15.4840 C.2    82  LYS82       0.2616
     62  O         -0.8380   53.6720   16.1220 O.2    82  LYS82      -0.2715
     63  CB        -1.8030   56.1820   16.5790 C.3    82  LYS82       0.0311
     64  CG        -2.1480   57.6510   16.8830 C.3    82  LYS82       0.0038
     65  CD        -1.0000   58.4210   17.5300 C.3    82  LYS82       0.0206
     66  CE        -1.3370   59.8900   17.7070 C.3    82  LYS82       0.1093
     67  NZ        -0.1420   60.7400   17.4500 N.3    82  LYS82      -0.1314
     68  N          0.7120   54.2940   14.5990 N.am   83  PHE83      -0.1960
     69  CA         1.1250   52.9460   14.2590 C.3    83  PHE83       0.1771
     70  C          2.3150   52.5310   15.1270 C.2    83  PHE83       0.2619
     71  O          3.4330   52.9610   14.8970 O.2    83  PHE83      -0.2715
     72  CB         1.4240   52.8880   12.7730 C.3    83  PHE83       0.0574
     73  CG         1.8300   51.5290   12.2680 C.ar   83  PHE83      -0.0200
     74  CD1        1.4160   50.3450   12.8700 C.ar   83  PHE83      -0.0042
     75  CD2        2.5140   51.4470   11.0820 C.ar   83  PHE83      -0.0042
     76  CE1        1.7790   49.1340   12.3520 C.ar   83  PHE83      -0.0003
     77  CE2        2.8490   50.2480   10.5530 C.ar   83  PHE83      -0.0003
     78  CZ         2.4920   49.0830   11.1970 C.ar   83  PHE83      -0.0000
     79  N          2.0590   51.6910   16.1170 N.am   84  PHE84      -0.1974
     80  CA         3.0910   51.2790   17.0710 C.3    84  PHE84       0.1639
     81  C          2.9900   49.8070   17.3960 C.2    84  PHE84       0.2290
     82  O          1.8930   49.2530   17.3850 O.2    84  PHE84      -0.2864
     83  CB         2.9370   52.0590   18.3820 C.3    84  PHE84       0.0560
     84  CG         3.0100   53.5550   18.2150 C.ar   84  PHE84      -0.0200
     85  CD1        4.2140   54.1710   17.9220 C.ar   84  PHE84      -0.0042
     86  CD2        1.8690   54.3540   18.3720 C.ar   84  PHE84      -0.0042
     87  CE1        4.2890   55.5420   17.7620 C.ar   84  PHE84      -0.0003
     88  CE2        1.9500   55.7220   18.2170 C.ar   84  PHE84      -0.0003
     89  CZ         3.1600   56.3130   17.9040 C.ar   84  PHE84      -0.0000
     90  N          3.2780   60.0490    7.8390 N.3   118  ASP118     -0.1239
     91  CA         4.6190   60.5710    7.9770 C.3   118  ASP118      0.1674
     92  C          5.3750   59.6840    8.9480 C.2   118  ASP118      0.2266
     93  O          4.7820   58.9700    9.7560 O.2   118  ASP118     -0.2867
     94  CB         4.6780   62.0480    8.3820 C.3   118  ASP118      0.1410
     95  CG         4.3470   62.2570    9.8110 C.2   118  ASP118      0.3668
     96  OD1        3.3420   61.6690   10.2150 O.co2 118  ASP118     -0.2456
     97  OD2        5.0660   63.0030   10.5060 O.co2 118  ASP118     -0.2456
     98  N          9.4500   59.6340   11.0770 N.3   120  PRO120     -0.2116
     99  CA        10.7270   60.3380   11.2970 C.3   120  PRO120      0.1372
    100  C         11.8230   59.9280   10.2990 C.2   120  PRO120      0.2244
    101  O         11.9450   58.7460    9.9580 O.2   120  PRO120     -0.2868
    102  CB        11.1130   59.9370   12.7190 C.3   120  PRO120      0.0268
    103  CG         9.8330   59.5540   13.3770 C.3   120  PRO120      0.0207
    104  CD         8.9730   58.9660   12.3050 C.3   120  PRO120      0.0892
    105  N         -4.5190   68.3690    5.4730 N.3   147  TYR147     -0.1227
    106  CA        -3.9470   67.8250    6.6880 C.3   147  TYR147      0.1736
    107  C         -2.5700   68.4070    6.8650 C.2   147  TYR147      0.2595
    108  O         -1.8510   68.6000    5.8960 O.2   147  TYR147     -0.2718
    109  CB        -3.8610   66.3020    6.5610 C.3   147  TYR147      0.0548
    110  CG        -3.3470   65.6050    7.7880 C.ar  147  TYR147     -0.0200
    111  CD1       -4.1680   65.4010    8.8870 C.ar  147  TYR147     -0.0009
    112  CD2       -2.0440   65.1210    7.8370 C.ar  147  TYR147     -0.0009
    113  CE1       -3.7080   64.7500   10.0100 C.ar  147  TYR147      0.0417
    114  CE2       -1.5820   64.4840    8.9430 C.ar  147  TYR147      0.0417
    115  CZ        -2.4140   64.2900   10.0280 C.ar  147  TYR147      0.1957
    116  OH        -1.9270   63.6330   11.1380 O.3   147  TYR147     -0.2866
    117  N         -2.2090   68.6940    8.1100 N.am  148  ILE148     -0.1966
    118  CA        -0.8990   69.2350    8.4160 C.3   148  ILE148      0.1727
    119  C         -0.1580   68.2050    9.2490 C.2   148  ILE148      0.2616
    120  O         -0.6500   67.7720   10.3140 O.2   148  ILE148     -0.2715
    121  CB        -0.9850   70.5770    9.1990 C.3   148  ILE148      0.0290
    122  CG1       -1.8670   71.6110    8.4770 C.3   148  ILE148      0.0022
    123  CG2        0.4170   71.1570    9.4210 C.3   148  ILE148      0.0023
    124  CD1       -1.2600   72.2460    7.3220 C.3   148  ILE148      0.0001
    125  N          1.0040   67.7950    8.7460 N.am  149  PHE149     -0.1960
    126  CA         1.8720   66.8540    9.4350 C.3   149  PHE149      0.1756
    127  C          2.6510   67.6240   10.5010 C.2   149  PHE149      0.2461
    128  O          2.9670   68.8060   10.3080 O.2   149  PHE149     -0.2730
    129  CB         2.8490   66.1810    8.4500 C.3   149  PHE149      0.0574
    130  CG         2.1650   65.4480    7.3290 C.ar  149  PHE149     -0.0200
    131  CD1        1.6660   64.1750    7.5160 C.ar  149  PHE149     -0.0042
    132  CD2        1.9850   66.0500    6.1070 C.ar  149  PHE149     -0.0042
    133  CE1        1.0140   63.5090    6.4700 C.ar  149  PHE149     -0.0003
    134  CE2        1.3350   65.3910    5.0690 C.ar  149  PHE149     -0.0003
    135  CZ         0.8470   64.1210    5.2650 C.ar  149  PHE149     -0.0000
    136  N          3.0020   66.9590   11.6170 N.am  150  PRO150     -0.2727
    137  CA         3.7210   67.6730   12.6820 C.3   150  PRO150      0.1402
    138  C          5.0470   68.2740   12.2100 C.2   150  PRO150      0.2269
    139  O          5.6650   67.7590   11.2650 O.2   150  PRO150     -0.2865
    140  CB         3.9190   66.6030   13.7660 C.3   150  PRO150      0.0296
    141  CG         3.6910   65.3020   13.0900 C.3   150  PRO150      0.0237
    142  CD         2.7680   65.5440   11.9560 C.3   150  PRO150      0.0939
    143  N          8.2940   68.2760   12.4410 N.3   152  ARG152     -0.1245
    144  CA         9.4390   67.4560   12.8470 C.3   152  ARG152      0.1563
    145  C         10.2220   67.0730   11.6050 C.2   152  ARG152      0.2260
    146  O          9.7830   67.3160   10.4740 O.2   152  ARG152     -0.2867
    147  CB         8.9800   66.1770   13.5580 C.3   152  ARG152      0.0307
    148  CG         8.2490   66.4190   14.8770 C.3   152  ARG152      0.0489
    149  CD         7.4850   65.1850   15.3630 C.3   152  ARG152      0.2205
    150  NE         6.4040   65.5960   16.2660 N.pl3 152  ARG152     -0.0865
    151  CZ         5.2760   64.9100   16.4920 C.cat 152  ARG152      0.5346
    152  NH1        5.0370   63.7420   15.8790 N.pl3 152  ARG152      0.1354
    153  NH2        4.3600   65.4190   17.3290 N.pl3 152  ARG152      0.1354
@<TRIPOS>BOND
     1   134   135   ar
     2   134   132   ar
     3   135   133   ar
     4   105   106    1
     5   108   107    2
     6   132   130   ar
     7   133   131   ar
     8    35    36    1
     9   109   106    1
    10   109   110    1
    11   106   107    1
    12   107   117   am
    13    36    37    1
    14    36    39    1
    15    41    39    1
    16   124   122    1
    17   130   131   ar
    18   130   129    1
    19    48    47    1
    20   110   112   ar
    21   110   111   ar
    22   112   114   ar
    23    90    91    1
    24    42    37   am
    25    42    43    1
    26    46    47    1
    27    46    43    1
    28    37    38    2
    29    39    40    1
    30    91    94    1
    31    91    92    1
    32   117   118    1
    33    94    95    1
    34   118   121    1
    35   118   119    1
    36   129   126    1
    37   122   121    1
    38    47    49    1
    39    43    44    1
    40   125   119   am
    41   125   126    1
    42   111   113   ar
    43   114   115   ar
    44    92    93    2
    45   121   123    1
    46   119   120    2
    47   126   127    1
    48    45    44    2
    49    95    96   ar
    50    95    97   ar
    51    44    50   am
    52   101   100    2
    53   113   115   ar
    54   115   116    1
    55   100    99    1
    56   128   127    2
    57   146   145    2
    58   127   136   am
    59    77    75   ar
    60    77    78   ar
    61    98    99    1
    62    98   104    1
    63    75    73   ar
    64    50    51    1
    65    78    76   ar
    66   139   138    2
    67    99   102    1
    68   145   144    1
    69   136   142    1
    70   136   137    1
    71   142   141    1
    72    55    56    1
    73    55    54    1
    74   138   137    1
    75    73    72    1
    76    73    74   ar
    77   104   103    1
    78    51    54    1
    79    51    52    1
    80    76    74   ar
    81   143   144    1
    82    56    57    1
    83   137   140    1
    84   102   103    1
    85    72    69    1
    86   144   147    1
    87   141   140    1
    88    53    52    2
    89    52    59   am
    90   147   148    1
    91    58    57    1
    92    69    68    1
    93    69    70    1
    94    59    60    1
    95    68    61   am
    96   148   149    1
    97    71    70    2
    98    70    79   am
    99   149   150    1
   100    61    60    1
   101    61    62    2
   102    60    63    1
   103   152   151    1
   104    79    80    1
   105   150   151    2
   106   151   153    1
   107    63    64    1
   108    17    15    1
   109    64    65    1
   110    80    81    1
   111    80    83    1
   112    16    15    1
   113    82    81    2
   114    67    66    1
   115    65    66    1
   116    87    89   ar
   117    87    85   ar
   118    89    88   ar
   119    85    84   ar
   120    15    14    1
   121    84    86   ar
   122    84    83    1
   123    88    86   ar
   124    25    23    1
   125    14    11    1
   126     9     7   am
   127    23    22    1
   128    33    32    2
   129    11    10    1
   130    11    12    1
   131     6     7    1
   132     6     5    1
   133    30    27    1
   134    30    31    1
   135     7     8    2
   136    13    12    2
   137    27    26    1
   138    27    28    1
   139    24    22    1
   140     2     5    1
   141     2     1    1
   142     2     3    1
   143    32    31    1
   144    32    34   am
   145     4     3    2
   146    22    19    1
   147    28    29    2
   148    19    18    1
   149    19    20    1
   150    20    21    2
