@<TRIPOS>MOLECULE
tmp/2q7dA00.pdb
 242 229 0 0 0
SMALL
GASTEIGER

@<TRIPOS>ATOM
      1  N        -12.1040   14.7720  -39.1200 N.3   114  ARG114     -0.1245
      2  CA       -11.7460   16.0630  -39.7320 C.3   114  ARG114      0.1563
      3  C        -12.9780   16.8260  -40.1840 C.2   114  ARG114      0.2260
      4  O        -13.0940   18.0160  -39.9320 O.2   114  ARG114     -0.2867
      5  CB       -10.7890   15.8470  -40.8970 C.3   114  ARG114      0.0307
      6  CG        -9.3770   15.6400  -40.4050 C.3   114  ARG114      0.0489
      7  CD        -8.3590   15.7600  -41.5370 C.3   114  ARG114      0.2205
      8  NE        -6.9830   15.7210  -41.0430 N.pl3 114  ARG114     -0.0865
      9  CZ        -6.2180   14.6270  -41.0570 C.cat 114  ARG114      0.5346
     10  NH1       -6.6740   13.4810  -41.5690 N.pl3 114  ARG114      0.1354
     11  NH2       -4.9960   14.6650  -40.5700 N.pl3 114  ARG114      0.1354
     12  N        -13.8990   20.4130  -38.8360 N.3   118  TYR118     -0.1241
     13  CA       -13.8910   21.5950  -39.7240 C.3   118  TYR118      0.1605
     14  C        -15.2400   22.2800  -39.7350 C.2   118  TYR118      0.2264
     15  O        -15.3290   23.5060  -39.8100 O.2   118  TYR118     -0.2867
     16  CB       -13.5010   21.2490  -41.1320 C.3   118  TYR118      0.0534
     17  CG       -12.0940   20.7670  -41.3340 C.ar  118  TYR118     -0.0201
     18  CD1      -11.0940   20.8840  -40.3460 C.ar  118  TYR118     -0.0009
     19  CD2      -11.7460   20.1730  -42.5350 C.ar  118  TYR118     -0.0009
     20  CE1       -9.7940   20.3900  -40.5780 C.ar  118  TYR118      0.0417
     21  CE2      -10.4830   19.6850  -42.7540 C.ar  118  TYR118      0.0417
     22  CZ        -9.4900   19.8160  -41.7980 C.ar  118  TYR118      0.1957
     23  OH        -8.2150   19.3370  -42.0530 O.3   118  TYR118     -0.2866
     24  N        -11.7310   27.7200  -45.0070 N.3   136  PRO136     -0.2116
     25  CA       -11.6500   27.2080  -46.3780 C.3   136  PRO136      0.1372
     26  C        -12.7880   26.2450  -46.6200 C.2   136  PRO136      0.2244
     27  O        -13.1110   25.4430  -45.7490 O.2   136  PRO136     -0.2868
     28  CB       -10.3100   26.4330  -46.3970 C.3   136  PRO136      0.0268
     29  CG        -9.5220   27.0750  -45.2880 C.3   136  PRO136      0.0207
     30  CD       -10.5180   27.3790  -44.2470 C.3   136  PRO136      0.0892
     31  N         -6.7890   20.0600  -51.1060 N.3   163  ILE163     -0.1245
     32  CA        -6.0260   18.9980  -50.4440 C.3   163  ILE163      0.1561
     33  C         -6.9870   17.9500  -49.9140 C.2   163  ILE163      0.2260
     34  O         -8.0790   18.2710  -49.4940 O.2   163  ILE163     -0.2867
     35  CB        -5.1760   19.6390  -49.3000 C.3   163  ILE163      0.0252
     36  CG1       -4.3170   18.5820  -48.5770 C.3   163  ILE163      0.0019
     37  CG2       -6.0480   20.4810  -48.3260 C.3   163  ILE163      0.0019
     38  CD1       -3.1660   19.2350  -47.8080 C.3   163  ILE163      0.0001
     39  N         -7.5700   14.7600  -47.3780 N.3   165  LYS165     -0.1245
     40  CA        -7.1080   14.2740  -46.0840 C.3   165  LYS165      0.1561
     41  C         -8.0200   13.1320  -45.6440 C.2   165  LYS165      0.2260
     42  O         -9.1730   13.0690  -46.0580 O.2   165  LYS165     -0.2867
     43  CB        -7.1470   15.3960  -45.0410 C.3   165  LYS165      0.0271
     44  CG        -6.4060   16.6550  -45.4290 C.3   165  LYS165      0.0035
     45  CD        -6.4740   17.6650  -44.3080 C.3   165  LYS165      0.0206
     46  CE        -5.9070   18.9860  -44.7800 C.3   165  LYS165      0.1093
     47  NZ        -5.8850   20.0590  -43.7270 N.3   165  LYS165     -0.1314
     48  N         -8.8310   11.6860  -37.9290 N.3   169  ALA169     -0.1231
     49  CA        -7.9450   12.8510  -37.7440 C.3   169  ALA169      0.1694
     50  C         -6.6250   12.5900  -36.9890 C.2   169  ALA169      0.2592
     51  O         -5.8530   13.5100  -36.7670 O.2   169  ALA169     -0.2718
     52  CB        -8.7150   13.9660  -37.0810 C.3   169  ALA169      0.0304
     53  N         -6.3850   11.3620  -36.5610 N.am  170  HIS170     -0.1976
     54  CA        -5.1970   11.0400  -35.8360 C.3   170  HIS170      0.1656
     55  C         -4.8700    9.5830  -36.0250 C.2   170  HIS170      0.2291
     56  O         -5.7030    8.7830  -36.4600 O.2   170  HIS170     -0.2864
     57  CB        -5.3930   11.3510  -34.3290 C.3   170  HIS170      0.0771
     58  CG        -4.1160   11.3850  -33.5520 C.ar  170  HIS170      0.0820
     59  ND1       -3.6750   10.3280  -32.7850 N.ar  170  HIS170     -0.2267
     60  CD2       -3.1630   12.3410  -33.4590 C.ar  170  HIS170      0.1154
     61  CE1       -2.5080   10.6360  -32.2430 C.ar  170  HIS170      0.1986
     62  NE2       -2.1680   11.8480  -32.6480 N.ar  170  HIS170     -0.2212
     63  N         -3.6820    8.3640  -40.8090 N.3   174  SER174     -0.1202
     64  CA        -4.2690    9.7040  -40.8250 C.3   174  SER174      0.2020
     65  C         -3.4660   10.8030  -41.5000 C.2   174  SER174      0.2618
     66  O         -3.9310   11.9590  -41.6230 O.2   174  SER174     -0.2717
     67  CB        -4.6530   10.1320  -39.4340 C.3   174  SER174      0.2103
     68  OG        -3.5340   10.5910  -38.6830 O.3   174  SER174     -0.2182
     69  N         -2.2660   10.4420  -41.9430 N.am  175  HIS175     -0.1975
     70  CA        -1.3120   11.4480  -42.4200 C.3   175  HIS175      0.1656
     71  C         -1.1070   11.4970  -43.9330 C.2   175  HIS175      0.2291
     72  O         -0.4620   12.4290  -44.3940 O.2   175  HIS175     -0.2864
     73  CB         0.0380   11.2170  -41.7380 C.3   175  HIS175      0.0771
     74  CG        -0.0500   11.2670  -40.2460 C.ar  175  HIS175      0.0820
     75  ND1        0.1490   12.4260  -39.5320 N.ar  175  HIS175     -0.2267
     76  CD2       -0.3390   10.3050  -39.3370 C.ar  175  HIS175      0.1154
     77  CE1       -0.0020   12.1740  -38.2400 C.ar  175  HIS175      0.1986
     78  NE2       -0.3090   10.8980  -38.0990 N.ar  175  HIS175     -0.2212
     79  N         -1.9530   12.4460  -47.5320 N.3   177  MET177     -0.1245
     80  CA        -2.7570   13.4900  -48.1280 C.3   177  MET177      0.1570
     81  C         -2.4210   13.6380  -49.5870 C.2   177  MET177      0.2261
     82  O         -1.4520   13.0730  -50.0650 O.2   177  MET177     -0.2867
     83  CB        -2.4440   14.8070  -47.4160 C.3   177  MET177      0.0387
     84  CG        -2.7820   14.7290  -45.9450 C.3   177  MET177      0.0595
     85  SD        -2.5770   16.2980  -45.1270 S.3   177  MET177     -0.1393
     86  CE        -3.3050   15.7690  -43.5430 C.3   177  MET177      0.0692
     87  N        -10.4190   19.9460  -48.9130 N.3   194  GLN194     -0.1231
     88  CA       -10.3900   21.3010  -48.3720 C.3   194  GLN194      0.1698
     89  C         -9.6030   22.1960  -49.3250 C.2   194  GLN194      0.2592
     90  O         -8.5460   21.8120  -49.8150 O.2   194  GLN194     -0.2718
     91  CB        -9.7210   21.2280  -47.0120 C.3   194  GLN194      0.0381
     92  CG        -9.6470   22.5690  -46.2750 C.3   194  GLN194      0.0905
     93  CD        -8.8000   22.4420  -45.0480 C.2   194  GLN194      0.2608
     94  OE1       -7.6670   21.9440  -45.1130 O.2   194  GLN194     -0.2717
     95  NE2       -9.3500   22.8530  -43.8830 N.am  194  GLN194     -0.0878
     96  N        -10.1550   23.3580  -49.6660 N.am  195  ASN195     -0.1960
     97  CA        -9.4330   24.2170  -50.6020 C.3   195  ASN195      0.1819
     98  C         -8.0550   24.5170  -50.0910 C.2   195  ASN195      0.2621
     99  O         -7.8780   24.7520  -48.9050 O.2   195  ASN195     -0.2715
    100  CB       -10.1760   25.5160  -50.8330 C.3   195  ASN195      0.1195
    101  CG       -11.3270   25.3490  -51.7750 C.2   195  ASN195      0.2630
    102  OD1      -11.4960   24.2950  -52.3920 O.2   195  ASN195     -0.2716
    103  ND2      -12.1110   26.4170  -51.9280 N.am  195  ASN195     -0.0877
    104  N         -7.0720   24.4220  -50.9850 N.am  196  PHE196     -0.1960
    105  CA        -5.7060   24.7520  -50.6630 C.3   196  PHE196      0.1771
    106  C         -5.5530   26.2590  -50.6760 C.2   196  PHE196      0.2619
    107  O         -5.9160   26.9370  -51.6400 O.2   196  PHE196     -0.2715
    108  CB        -4.7620   24.1160  -51.6940 C.3   196  PHE196      0.0574
    109  CG        -3.3210   24.3190  -51.3730 C.ar  196  PHE196     -0.0200
    110  CD1       -2.6150   23.3410  -50.6910 C.ar  196  PHE196     -0.0042
    111  CD2       -2.6720   25.4980  -51.7180 C.ar  196  PHE196     -0.0042
    112  CE1       -1.2760   23.5340  -50.3450 C.ar  196  PHE196     -0.0003
    113  CE2       -1.3270   25.7050  -51.3870 C.ar  196  PHE196     -0.0003
    114  CZ        -0.6270   24.7170  -50.7030 C.ar  196  PHE196     -0.0000
    115  N         -4.9450   26.7800  -49.6190 N.am  197  ILE197     -0.1977
    116  CA        -4.7440   28.1940  -49.4710 C.3   197  ILE197      0.1596
    117  C         -3.2510   28.5030  -49.5220 C.2   197  ILE197      0.2287
    118  O         -2.4750   28.0090  -48.7320 O.2   197  ILE197     -0.2864
    119  CB        -5.3050   28.6800  -48.1000 C.3   197  ILE197      0.0276
    120  CG1       -6.7930   28.3530  -47.9790 C.3   197  ILE197      0.0022
    121  CG2       -4.9640   30.1950  -47.8890 C.3   197  ILE197      0.0022
    122  CD1       -7.6420   28.8720  -49.1380 C.3   197  ILE197      0.0001
    123  N         -0.0790   30.3730  -48.6950 N.3   199  HIS199     -0.1241
    124  CA         0.2190   31.0360  -47.4150 C.3   199  HIS199      0.1621
    125  C          1.6930   31.2090  -47.1800 C.2   199  HIS199      0.2264
    126  O          2.1220   31.3460  -46.0300 O.2   199  HIS199     -0.2867
    127  CB        -0.4120   30.2460  -46.2380 C.3   199  HIS199      0.0745
    128  CG         0.0860   28.8310  -46.1280 C.ar  199  HIS199      0.0817
    129  ND1       -0.3470   27.8300  -46.9780 N.ar  199  HIS199     -0.2268
    130  CD2        0.9390   28.2480  -45.2460 C.ar  199  HIS199      0.1154
    131  CE1        0.2570   26.7020  -46.6520 C.ar  199  HIS199      0.1986
    132  NE2        1.0540   26.9280  -45.6180 N.ar  199  HIS199     -0.2212
    133  N          3.5490   27.8720  -41.4300 N.3   203  LEU203     -0.1245
    134  CA         2.4870   27.3780  -40.6040 C.3   203  LEU203      0.1561
    135  C          2.6720   27.9700  -39.2270 C.2   203  LEU203      0.2260
    136  O          3.7640   27.8970  -38.6860 O.2   203  LEU203     -0.2867
    137  CB         2.5530   25.8430  -40.5160 C.3   203  LEU203      0.0270
    138  CG         1.5690   25.2050  -39.5310 C.3   203  LEU203      0.0019
    139  CD1        0.1410   25.4420  -39.9980 C.3   203  LEU203      0.0001
    140  CD2        1.8130   23.6990  -39.4690 C.3   203  LEU203      0.0001
    141  N          1.6660   27.1700  -35.7440 N.3   205  LYS205     -0.1245
    142  CA         1.0370   26.2190  -34.8200 C.3   205  LYS205      0.1561
    143  C          0.7030   26.9360  -33.5450 C.2   205  LYS205      0.2260
    144  O          1.6270   27.3650  -32.8110 O.2   205  LYS205     -0.2867
    145  CB         1.9920   25.0770  -34.5090 C.3   205  LYS205      0.0271
    146  CG         2.2670   24.1940  -35.7280 C.3   205  LYS205      0.0035
    147  CD         2.8380   22.8700  -35.2920 C.3   205  LYS205      0.0206
    148  CE         1.8280   21.8640  -34.7690 C.3   205  LYS205      0.1093
    149  NZ         0.9210   21.2710  -35.8400 N.3   205  LYS205     -0.1314
    150  N          5.8540   24.5510  -44.0800 N.3   220  SER220     -0.1202
    151  CA         4.5070   24.3460  -44.5520 C.3   220  SER220      0.2020
    152  C          4.5310   24.2750  -46.0660 C.2   220  SER220      0.2618
    153  O          5.5220   24.6940  -46.7040 O.2   220  SER220     -0.2717
    154  CB         3.5940   25.4540  -44.0320 C.3   220  SER220      0.2103
    155  OG         2.2430   25.0600  -44.1280 O.3   220  SER220     -0.2182
    156  N          3.4700   23.7250  -46.6450 N.am  221  LEU221     -0.1979
    157  CA         3.3890   23.5780  -48.0970 C.3   221  LEU221      0.1596
    158  C          3.5540   24.9050  -48.7990 C.2   221  LEU221      0.2287
    159  O          2.9800   25.9140  -48.3820 O.2   221  LEU221     -0.2864
    160  CB         2.0810   22.9290  -48.5250 C.3   221  LEU221      0.0297
    161  CG         1.8500   21.4720  -48.0960 C.3   221  LEU221      0.0022
    162  CD1        0.5440   21.0000  -48.7070 C.3   221  LEU221      0.0001
    163  CD2        2.9580   20.5770  -48.4830 C.3   221  LEU221      0.0001
    164  N          1.5430   13.1250  -50.4390 N.3   232  PHE232     -0.1241
    165  CA         2.5780   13.3070  -49.4370 C.3   232  PHE232      0.1605
    166  C          2.0710   12.8040  -48.1100 C.2   232  PHE232      0.2264
    167  O          0.8650   12.5560  -47.9560 O.2   232  PHE232     -0.2867
    168  CB         3.0100   14.7850  -49.3640 C.3   232  PHE232      0.0534
    169  CG         1.9770   15.6980  -48.7870 C.ar  232  PHE232     -0.0203
    170  CD1        1.0080   16.2500  -49.6060 C.ar  232  PHE232     -0.0042
    171  CD2        1.9910   16.0170  -47.4460 C.ar  232  PHE232     -0.0042
    172  CE1        0.0440   17.1110  -49.0780 C.ar  232  PHE232     -0.0003
    173  CE2        1.0390   16.8610  -46.9050 C.ar  232  PHE232     -0.0003
    174  CZ         0.0610   17.4040  -47.7410 C.ar  232  PHE232     -0.0000
    175  N          1.8550   13.8120  -44.1630 N.3   234  SER234     -0.1217
    176  CA         2.0380   15.0130  -43.3810 C.3   234  SER234      0.1889
    177  C          3.1110   14.9220  -42.2860 C.2   234  SER234      0.2288
    178  O          3.5230   15.9490  -41.7720 O.2   234  SER234     -0.2866
    179  CB         0.7100   15.4480  -42.7740 C.3   234  SER234      0.2089
    180  OG         0.3270   14.5230  -41.7670 O.3   234  SER234     -0.2183
    181  N          6.1010   17.0910  -43.4570 N.3   237  VAL237     -0.1231
    182  CA         5.8670   18.4520  -43.9630 C.3   237  VAL237      0.1692
    183  C          6.0860   19.5870  -42.9580 C.2   237  VAL237      0.2593
    184  O          6.7080   20.5970  -43.2890 O.2   237  VAL237     -0.2718
    185  CB         4.4430   18.5670  -44.6220 C.3   237  VAL237      0.0266
    186  CG1        4.1230   20.0050  -45.0040 C.3   237  VAL237      0.0020
    187  CG2        4.4390   17.6890  -45.8580 C.3   237  VAL237      0.0020
    188  N          5.5880   19.4020  -41.7480 N.am  238  SER238     -0.1938
    189  CA         5.4390   20.5300  -40.8220 C.3   238  SER238      0.2055
    190  C          5.9730   20.2500  -39.4280 C.2   238  SER238      0.2642
    191  O          5.5220   20.7960  -38.4230 O.2   238  SER238     -0.2714
    192  CB         3.9900   21.0410  -40.8090 C.3   238  SER238      0.2130
    193  OG         3.6870   21.6110  -42.0670 O.3   238  SER238     -0.2179
    194  N          6.9810   19.3760  -39.4030 N.am  239  LYS239     -0.1977
    195  CA         7.8090   19.1870  -38.2080 C.3   239  LYS239      0.1596
    196  C          8.9480   20.2010  -38.1450 C.2   239  LYS239      0.2287
    197  O          9.3120   20.7660  -39.1580 O.2   239  LYS239     -0.2864
    198  CB         8.3560   17.7710  -38.1910 C.3   239  LYS239      0.0298
    199  CG         7.3000   16.7130  -38.0560 C.3   239  LYS239      0.0038
    200  CD         6.8160   16.6100  -36.6190 C.3   239  LYS239      0.0206
    201  CE         5.6330   15.6390  -36.5200 C.3   239  LYS239      0.1093
    202  NZ         4.9970   15.6480  -35.1670 N.3   239  LYS239     -0.1314
    203  N         -3.7940   24.8360  -36.1620 N.3   283  ASP283     -0.1239
    204  CA        -2.8010   25.2120  -37.1300 C.3   283  ASP283      0.1674
    205  C         -3.4000   26.3250  -37.9300 C.2   283  ASP283      0.2266
    206  O         -4.4360   26.1330  -38.5550 O.2   283  ASP283     -0.2867
    207  CB        -2.4960   24.0390  -38.0820 C.3   283  ASP283      0.1410
    208  CG        -1.6100   22.9820  -37.4570 C.2   283  ASP283      0.3668
    209  OD1       -1.1280   23.1250  -36.3150 O.co2 283  ASP283     -0.2456
    210  OD2       -1.4210   21.9930  -38.1690 O.co2 283  ASP283     -0.2456
    211  N         -2.8030   29.2700  -40.8950 N.3   285  ILE285     -0.1245
    212  CA        -2.0430   29.8260  -42.0270 C.3   285  ILE285      0.1561
    213  C         -2.6600   31.1660  -42.3780 C.2   285  ILE285      0.2260
    214  O         -3.8370   31.4330  -42.0910 O.2   285  ILE285     -0.2867
    215  CB        -1.9990   28.8620  -43.2160 C.3   285  ILE285      0.0252
    216  CG1       -3.3990   28.5500  -43.7300 C.3   285  ILE285      0.0019
    217  CG2       -1.2360   27.5520  -42.7740 C.3   285  ILE285      0.0019
    218  CD1       -3.4390   27.6820  -44.9850 C.3   285  ILE285      0.0001
    219  N         -6.4840   25.2360  -40.4460 N.3   296  ILE296     -0.1231
    220  CA        -6.4830   24.0880  -41.3720 C.3   296  ILE296      0.1692
    221  C         -6.3780   22.7230  -40.6710 C.2   296  ILE296      0.2592
    222  O         -6.4280   21.6830  -41.3300 O.2   296  ILE296     -0.2718
    223  CB        -5.4080   24.2370  -42.4650 C.3   296  ILE296      0.0266
    224  CG1       -4.0380   24.4400  -41.7710 C.3   296  ILE296      0.0019
    225  CG2       -5.8320   25.4250  -43.3670 C.3   296  ILE296      0.0020
    226  CD1       -2.8470   23.9750  -42.5330 C.3   296  ILE296      0.0001
    227  N         -6.2190   22.7320  -39.3460 N.am  297  ASP297     -0.1974
    228  CA        -6.0050   21.5040  -38.5960 C.3   297  ASP297      0.1709
    229  C         -6.2680   21.8860  -37.1380 C.2   297  ASP297      0.2293
    230  O         -5.9380   23.0040  -36.7070 O.2   297  ASP297     -0.2864
    231  CB        -4.5540   21.0060  -38.7970 C.3   297  ASP297      0.1436
    232  CG        -4.2750   19.6500  -38.1250 C.2   297  ASP297      0.3671
    233  OD1       -5.2340   18.8750  -37.9110 O.co2 297  ASP297     -0.2456
    234  OD2       -3.1030   19.4370  -37.7980 O.co2 297  ASP297     -0.2456
    235  N         -5.9700   19.7600  -33.2640 N.3   299  ASN299     -0.1240
    236  CA        -5.4710   18.4950  -32.7140 C.3   299  ASN299      0.1653
    237  C         -5.6110   18.4630  -31.2140 C.2   299  ASN299      0.2266
    238  O         -5.1810   19.3750  -30.5090 O.2   299  ASN299     -0.2867
    239  CB        -3.9840   18.3370  -32.9720 C.3   299  ASN299      0.1155
    240  CG        -3.6360   18.4140  -34.4220 C.2   299  ASN299      0.2627
    241  OD1       -2.9520   19.3530  -34.8710 O.2   299  ASN299     -0.2716
    242  ND2       -4.0820   17.4650  -35.1580 N.am  299  ASN299     -0.0877
@<TRIPOS>BOND
     1   102   101    2
     2   103   101   am
     3   101   100    1
     4   111   113   ar
     5   111   109   ar
     6   108   109    1
     7   108   105    1
     8   107   106    2
     9   113   114   ar
    10   109   110   ar
    11    31    32    1
    12   104   105    1
    13   104    98   am
    14   100    97    1
    15   114   112   ar
    16   110   112   ar
    17   106   105    1
    18   106   115   am
    19    97    98    1
    20    97    96    1
    21    32    33    1
    22    32    35    1
    23   164   165    1
    24    98    99    2
    25    82    81    2
    26    33    34    2
    27    90    89    2
    28    96    89   am
    29   115   116    1
    30   170   172   ar
    31   170   169   ar
    32    81    80    1
    33   117   116    1
    34   117   118    2
    35   116   119    1
    36   165   168    1
    37   165   166    1
    38   168   169    1
    39    89    88    1
    40    35    36    1
    41    35    37    1
    42   122   120    1
    43   172   174   ar
    44    87    88    1
    45   158   159    2
    46   158   157    1
    47   169   171   ar
    48   162   161    1
    49   123   124    1
    50    36    38    1
    51   160   157    1
    52   160   161    1
    53   163   161    1
    54    88    91    1
    55    80    79    1
    56    80    83    1
    57   166   167    2
    58   119   120    1
    59   119   121    1
    60   157   156    1
    61   174   173   ar
    62   171   173   ar
    63    83    84    1
    64   124   125    1
    65   124   127    1
    66    39    40    1
    67   125   126    2
    68    91    92    1
    69   129   131   ar
    70   129   128   ar
    71   153   152    2
    72   131   132   ar
    73   156   152   am
    74    26    25    1
    75    26    27    2
    76    28    25    1
    77    28    29    1
    78    25    24    1
    79    92    93    1
    80   127   128    1
    81   128   130   ar
    82    40    41    1
    83    40    43    1
    84   152   151    1
    85    42    41    2
    86    84    85    1
    87   187   185    1
    88   132   130   ar
    89    44    43    1
    90    44    45    1
    91    29    30    1
    92    85    86    1
    93    94    93    2
    94    93    95   am
    95    24    30    1
    96   186   185    1
    97   218   216    1
    98    46    45    1
    99    46    47    1
   100   185   182    1
   101   151   150    1
   102   151   154    1
   103    72    71    2
   104   175   176    1
   105   155   154    1
   106   182   181    1
   107   182   183    1
   108    71    70    1
   109   216   215    1
   110   176   179    1
   111   176   177    1
   112   225   223    1
   113   184   183    2
   114   215   217    1
   115   215   212    1
   116   183   188   am
   117   179   180    1
   118    21    19   ar
   119    21    22   ar
   120    19    17   ar
   121   226   224    1
   122   223   224    1
   123   223   220    1
   124    70    69    1
   125    70    73    1
   126   213   214    2
   127   213   212    1
   128   177   178    2
   129   193   192    1
   130    23    22    1
   131   212   211    1
   132    69    65   am
   133    22    20   ar
   134   188   189    1
   135    73    74    1
   136    66    65    2
   137    10     9    1
   138     7     8    1
   139     7     6    1
   140    65    64    1
   141   133   134    1
   142   220   221    1
   143   220   219    1
   144    17    16    1
   145    17    18   ar
   146   222   221    2
   147    16    13    1
   148     9     8    2
   149     9    11    1
   150     5     6    1
   151     5     2    1
   152    64    63    1
   153    64    67    1
   154   189   192    1
   155   189   190    1
   156   221   227   am
   157   134   137    1
   158   134   135    1
   159    20    18   ar
   160   137   138    1
   161    74    75   ar
   162    74    76   ar
   163     3     4    2
   164     3     2    1
   165   139   138    1
   166    15    14    2
   167    14    13    1
   168     2     1    1
   169    13    12    1
   170    75    77   ar
   171   138   140    1
   172    67    68    1
   173   190   194   am
   174   190   191    2
   175   194   195    1
   176   227   228    1
   177    76    78   ar
   178   135   136    2
   179   197   196    2
   180   231   228    1
   181   231   232    1
   182   228   229    1
   183   206   205    2
   184    77    78   ar
   185   195   198    1
   186   195   196    1
   187   198   199    1
   188   210   208   ar
   189   232   233   ar
   190   232   234   ar
   191   207   208    1
   192   207   204    1
   193   199   200    1
   194   205   204    1
   195    48    49    1
   196    49    52    1
   197    49    50    1
   198   208   209   ar
   199   229   230    2
   200   204   203    1
   201    50    51    2
   202    50    53   am
   203   200   201    1
   204    53    54    1
   205   201   202    1
   206    56    55    2
   207    55    54    1
   208   149   148    1
   209    54    57    1
   210   141   142    1
   211   146   147    1
   212   146   145    1
   213   147   148    1
   214   242   240   am
   215   241   240    2
   216   142   145    1
   217   142   143    1
   218   240   239    1
   219    57    58    1
   220    58    60   ar
   221    58    59   ar
   222   143   144    2
   223    60    62   ar
   224   235   236    1
   225   239   236    1
   226    59    61   ar
   227   236   237    1
   228    62    61   ar
   229   237   238    2
