@<TRIPOS>MOLECULE
tmp/2q7gA01.pdb
 141 132 0 0 0
SMALL
GASTEIGER

@<TRIPOS>ATOM
      1  N          8.5220   51.8020   43.0270 N.3    83  MET83      -0.1245
      2  CA         7.9200   50.8010   42.1490 C.3    83  MET83       0.1570
      3  C          6.8090   50.0010   42.8410 C.2    83  MET83       0.2261
      4  O          6.2650   49.0690   42.2500 O.2    83  MET83      -0.2867
      5  CB         8.9890   49.8300   41.6300 C.3    83  MET83       0.0387
      6  CG         9.8830   50.4120   40.5640 C.3    83  MET83       0.0595
      7  SD         8.9860   50.9040   39.0950 S.3    83  MET83      -0.1393
      8  CE         8.2990   49.3440   38.5580 C.3    83  MET83       0.0692
      9  N          9.4520   40.2710   45.4440 N.3    87  LEU87      -0.1245
     10  CA        10.6570   40.9130   44.9160 C.3    87  LEU87       0.1561
     11  C         11.3990   41.6620   46.0350 C.2    87  LEU87       0.2260
     12  O         12.6060   41.8700   45.9450 O.2    87  LEU87      -0.2867
     13  CB        10.3070   41.8770   43.7610 C.3    87  LEU87       0.0270
     14  CG        10.9680   41.6640   42.3890 C.3    87  LEU87       0.0019
     15  CD1       10.7020   42.8530   41.4740 C.3    87  LEU87       0.0001
     16  CD2       12.4550   41.4090   42.4870 C.3    87  LEU87       0.0001
     17  N         15.0300   45.2030   37.7260 N.3   103  MET103     -0.1245
     18  CA        14.2230   45.3830   36.5410 C.3   103  MET103      0.1570
     19  C         14.5940   46.7300   35.9250 C.2   103  MET103      0.2261
     20  O         15.2220   47.5730   36.5660 O.2   103  MET103     -0.2867
     21  CB        12.7330   45.3650   36.9090 C.3   103  MET103      0.0387
     22  CG        12.2970   46.6090   37.6700 C.3   103  MET103      0.0595
     23  SD        10.7720   46.4450   38.5720 S.3   103  MET103     -0.1393
     24  CE        11.2970   45.4520   39.9500 C.3   103  MET103      0.0692
     25  N         12.2750   48.8740   34.6010 N.3   105  ALA105     -0.1245
     26  CA        11.1410   49.8100   34.6690 C.3   105  ALA105      0.1562
     27  C         11.4060   51.1930   35.2930 C.2   105  ALA105      0.2260
     28  O         11.0170   52.1920   34.7050 O.2   105  ALA105     -0.2867
     29  CB         9.9090   49.1530   35.3270 C.3   105  ALA105      0.0290
     30  N         13.3420   53.4640   32.9840 N.3   108  LEU108     -0.1231
     31  CA        12.5530   53.7230   31.7820 C.3   108  LEU108      0.1693
     32  C         11.3780   54.6610   32.0510 C.2   108  LEU108      0.2592
     33  O         11.0280   55.4870   31.2030 O.2   108  LEU108     -0.2718
     34  CB        12.1040   52.4180   31.1230 C.3   108  LEU108      0.0284
     35  CG        13.2680   51.5830   30.5710 C.3   108  LEU108      0.0019
     36  CD1       12.7320   50.2540   30.0250 C.3   108  LEU108      0.0001
     37  CD2       14.0690   52.3440   29.4970 C.3   108  LEU108      0.0001
     38  N         10.7870   54.5630   33.2410 N.am  109  TYR109     -0.1976
     39  CA         9.7540   55.5080   33.6540 C.3   109  TYR109      0.1639
     40  C         10.3060   56.9340   33.6360 C.2   109  TYR109      0.2290
     41  O          9.6670   57.8570   33.1240 O.2   109  TYR109     -0.2864
     42  CB         9.2760   55.1900   35.0680 C.3   109  TYR109      0.0560
     43  CG         7.9790   54.4260   35.2070 C.ar  109  TYR109     -0.0198
     44  CD1        6.8090   54.8760   34.5950 C.ar  109  TYR109     -0.0009
     45  CD2        7.8960   53.3130   36.0410 C.ar  109  TYR109     -0.0009
     46  CE1        5.6070   54.2040   34.7590 C.ar  109  TYR109      0.0417
     47  CE2        6.6950   52.6280   36.2150 C.ar  109  TYR109      0.0417
     48  CZ         5.5570   53.0680   35.5750 C.ar  109  TYR109      0.1957
     49  OH         4.3610   52.3960   35.7640 O.3   109  TYR109     -0.2866
     50  N         10.8130   58.0090   29.9850 N.3   112  LEU112     -0.1245
     51  CA         9.5380   58.3790   29.3700 C.3   112  LEU112      0.1561
     52  C          9.0770   59.7820   29.7820 C.2   112  LEU112      0.2260
     53  O          8.6490   60.5720   28.9410 O.2   112  LEU112     -0.2867
     54  CB         8.4390   57.3730   29.7180 C.3   112  LEU112      0.0270
     55  CG         8.5430   55.9940   29.0600 C.3   112  LEU112      0.0019
     56  CD1        7.4810   55.0690   29.6510 C.3   112  LEU112      0.0001
     57  CD2        8.4180   56.0650   27.5400 C.3   112  LEU112      0.0001
     58  N         18.5830   39.6270   40.7570 N.3   133  ARG133     -0.1245
     59  CA        17.6150   39.1930   41.7590 C.3   133  ARG133      0.1563
     60  C         18.1620   37.9990   42.5070 C.2   133  ARG133      0.2260
     61  O         18.6890   37.0760   41.9090 O.2   133  ARG133     -0.2867
     62  CB        16.2930   38.7730   41.1110 C.3   133  ARG133      0.0307
     63  CG        15.6230   39.8720   40.3670 C.3   133  ARG133      0.0489
     64  CD        14.2970   39.4410   39.7710 C.3   133  ARG133      0.2205
     65  NE        13.7820   40.4850   38.8990 N.pl3 133  ARG133     -0.0865
     66  CZ        12.6280   40.4210   38.2490 C.cat 133  ARG133      0.5346
     67  NH1       11.8280   39.3650   38.4030 N.pl3 133  ARG133      0.1354
     68  NH2       12.2660   41.4350   37.4640 N.pl3 133  ARG133      0.1354
     69  N         17.9150   41.7260   30.8040 N.3   147  MET147     -0.1245
     70  CA        16.5520   42.0150   30.3970 C.3   147  MET147      0.1570
     71  C         16.5470   42.9210   29.1750 C.2   147  MET147      0.2261
     72  O         17.3910   43.7900   29.0380 O.2   147  MET147     -0.2867
     73  CB        15.7500   42.6690   31.5360 C.3   147  MET147      0.0387
     74  CG        14.2430   42.5490   31.3550 C.3   147  MET147      0.0595
     75  SD        13.2360   43.3780   32.6030 S.3   147  MET147     -0.1393
     76  CE        13.4430   42.2870   34.0180 C.3   147  MET147      0.0692
     77  N         13.6370   45.4870   27.8670 N.3   149  ASN149     -0.1225
     78  CA        12.3240   46.0840   28.1380 C.3   149  ASN149      0.1785
     79  C         12.1260   47.1320   27.0630 C.2   149  ASN149      0.2597
     80  O         12.9600   48.0170   26.9310 O.2   149  ASN149     -0.2718
     81  CB        12.3150   46.7410   29.5160 C.3   149  ASN149      0.1169
     82  CG        10.9170   47.0130   30.0830 C.2   149  ASN149      0.2627
     83  OD1       10.7650   46.9860   31.3040 O.2   149  ASN149     -0.2716
     84  ND2        9.9070   47.3030   29.2290 N.am  149  ASN149     -0.0877
     85  N         11.0690   46.9890   26.2710 N.am  150  PHE150     -0.1962
     86  CA        10.6630   48.0340   25.3410 C.3   150  PHE150      0.1771
     87  C          9.3520   48.6290   25.8140 C.2   150  PHE150      0.2619
     88  O          8.5620   47.9770   26.5200 O.2   150  PHE150     -0.2715
     89  CB        10.5860   47.5240   23.8960 C.3   150  PHE150      0.0574
     90  CG         9.5220   46.4840   23.6580 C.ar  150  PHE150     -0.0200
     91  CD1        9.8410   45.1300   23.6990 C.ar  150  PHE150     -0.0042
     92  CD2        8.2080   46.8540   23.4200 C.ar  150  PHE150     -0.0042
     93  CE1        8.8780   44.1670   23.4800 C.ar  150  PHE150     -0.0003
     94  CE2        7.2240   45.8830   23.2030 C.ar  150  PHE150     -0.0003
     95  CZ         7.5710   44.5400   23.2290 C.ar  150  PHE150     -0.0000
     96  N          9.1230   49.8880   25.4440 N.am  151  CYS151     -0.1968
     97  CA         7.9110   50.5970   25.8330 C.3   151  CYS151      0.1712
     98  C          7.5270   51.6360   24.7850 C.2   151  CYS151      0.2296
     99  O          8.3920   52.2060   24.1200 O.2   151  CYS151     -0.2864
    100  CB         8.0950   51.2800   27.1930 C.3   151  CYS151      0.0983
    101  SG         6.6300   52.1750   27.8080 S.3   151  CYS151     -0.0798
    102  N          6.7540   39.0970   30.5450 N.3   195  SER195     -0.1217
    103  CA         5.5320   39.7070   31.0490 C.3   195  SER195      0.1889
    104  C          5.3540   41.0390   30.3300 C.2   195  SER195      0.2288
    105  O          6.3310   41.7990   30.1530 O.2   195  SER195     -0.2866
    106  CB         5.6180   39.9260   32.5530 C.3   195  SER195      0.2089
    107  OG         5.4300   38.7010   33.2350 O.3   195  SER195     -0.2183
    108  N          2.5020   44.4640   29.6300 N.3   197  VAL197     -0.1245
    109  CA         1.4740   45.2650   30.2550 C.3   197  VAL197      0.1561
    110  C          0.9280   46.2900   29.2730 C.2   197  VAL197      0.2260
    111  O          1.6800   46.9190   28.5220 O.2   197  VAL197     -0.2867
    112  CB         2.0270   46.0080   31.5030 C.3   197  VAL197      0.0252
    113  CG1        0.9690   46.9190   32.1020 C.3   197  VAL197      0.0019
    114  CG2        2.5420   45.0140   32.5340 C.3   197  VAL197      0.0019
    115  N          0.2720   53.6600   27.6800 N.3   213  TRP213     -0.1241
    116  CA         1.5450   53.0470   27.3020 C.3   213  TRP213      0.1605
    117  C          1.3890   51.5400   27.1940 C.2   213  TRP213      0.2264
    118  O          0.4120   50.9650   27.6870 O.2   213  TRP213     -0.2867
    119  CB         2.6700   53.3990   28.2940 C.3   213  TRP213      0.0550
    120  CG         2.4570   52.8880   29.6750 C.ar  213  TRP213      0.0003
    121  CD1        1.8050   53.5210   30.6900 C.ar  213  TRP213      0.0946
    122  CD2        2.8830   51.6210   30.2020 C.ar  213  TRP213      0.0152
    123  NE1        1.8110   52.7350   31.8170 N.ar  213  TRP213     -0.2442
    124  CE2        2.4520   51.5610   31.5430 C.ar  213  TRP213      0.0810
    125  CE3        3.5820   50.5340   29.6710 C.ar  213  TRP213      0.0012
    126  CZ2        2.7040   50.4550   32.3660 C.ar  213  TRP213      0.0191
    127  CZ3        3.8290   49.4450   30.4810 C.ar  213  TRP213      0.0001
    128  CH2        3.3840   49.4100   31.8160 C.ar  213  TRP213      0.0015
    129  N          4.1860   47.9610   27.0930 N.3   215  GLY215     -0.1210
    130  CA         5.5590   47.5510   27.2170 C.3   215  GLY215      0.1956
    131  C          5.6850   46.0910   27.5680 C.2   215  GLY215      0.2612
    132  O          4.7250   45.4680   27.9610 O.2   215  GLY215     -0.2717
    133  N          6.8870   45.5590   27.4070 N.am  216  ALA216     -0.1965
    134  CA         7.1590   44.1730   27.7430 C.3   216  ALA216      0.1728
    135  C          8.6210   44.0170   28.0950 C.2   216  ALA216      0.2616
    136  O          9.4830   44.7390   27.5690 O.2   216  ALA216     -0.2715
    137  CB         6.7970   43.2720   26.5880 C.3   216  ALA216      0.0334
    138  N          8.8870   43.0550   28.9780 N.am  217  GLY217     -0.1955
    139  CA        10.2280   42.7200   29.4030 C.3   217  GLY217      0.1869
    140  C         10.4970   41.2540   29.1360 C.2   217  GLY217      0.2309
    141  O          9.6740   40.3890   29.4720 O.2   217  GLY217     -0.2863
@<TRIPOS>BOND
     1    94    95   ar
     2    94    92   ar
     3    95    93   ar
     4    92    90   ar
     5    93    91   ar
     6    90    91   ar
     7    90    89    1
     8    89    86    1
     9    99    98    2
    10    98    97    1
    11    86    87    1
    12    86    85    1
    13    96    87   am
    14    96    97    1
    15    87    88    2
    16    97   100    1
    17    85    79   am
    18   137   134    1
    19    80    79    2
    20    79    78    1
    21   129   130    1
    22   100   101    1
    23   117   116    1
    24   117   118    2
    25   130   131    1
    26   116   115    1
    27   116   119    1
    28   133   131   am
    29   133   134    1
    30    57    55    1
    31   131   132    2
    32   136   135    2
    33   134   135    1
    34    77    78    1
    35   135   138   am
    36    78    81    1
    37   119   120    1
    38   111   110    2
    39    53    52    2
    40   138   139    1
    41    72    71    2
    42    55    56    1
    43    55    54    1
    44   140   139    1
    45   140   141    2
    46    71    70    1
    47    84    82   am
    48   110   109    1
    49    51    54    1
    50    51    52    1
    51    51    50    1
    52    37    35    1
    53    81    82    1
    54   108   109    1
    55   125   122   ar
    56   125   127   ar
    57   120   122   ar
    58   120   121   ar
    59    36    35    1
    60    82    83    2
    61   105   104    2
    62   122   124   ar
    63   109   112    1
    64   104   103    1
    65    70    69    1
    66    70    73    1
    67   127   128   ar
    68   102   103    1
    69    35    34    1
    70   121   123   ar
    71   103   106    1
    72    34    31    1
    73    33    32    2
    74    74    73    1
    75    74    75    1
    76   112   113    1
    77   112   114    1
    78   124   123   ar
    79   124   126   ar
    80    31    32    1
    81    31    30    1
    82   128   126   ar
    83    32    38   am
    84   106   107    1
    85    75    76    1
    86    41    40    2
    87    38    39    1
    88    40    39    1
    89    39    42    1
    90    44    46   ar
    91    44    43   ar
    92    25    26    1
    93    26    27    1
    94    26    29    1
    95    28    27    2
    96    46    48   ar
    97    42    43    1
    98    43    45   ar
    99    48    49    1
   100    48    47   ar
   101    19    18    1
   102    19    20    2
   103    45    47   ar
   104    18    21    1
   105    18    17    1
   106    21    22    1
   107    68    66    1
   108    22    23    1
   109    66    67    1
   110    66    65    2
   111     8     7    1
   112    23    24    1
   113    65    64    1
   114     7     6    1
   115    64    63    1
   116    63    62    1
   117     6     5    1
   118    58    59    1
   119    62    59    1
   120    15    14    1
   121     5     2    1
   122    59    60    1
   123    61    60    2
   124     2     3    1
   125     2     1    1
   126     4     3    2
   127    14    16    1
   128    14    13    1
   129    13    10    1
   130    10     9    1
   131    10    11    1
   132    12    11    2
