@<TRIPOS>MOLECULE
tmp/2q7jA00.pdb
 141 131 0 0 0
SMALL
GASTEIGER

@<TRIPOS>ATOM
      1  N         30.6100    9.6510    9.7390 N.3    42  LEU42      -0.1231
      2  CA        30.8660    9.3960   11.1530 C.3    42  LEU42       0.1693
      3  C         31.4380   10.6320   11.8490 C.2    42  LEU42       0.2591
      4  O         31.0540   10.9420   12.9750 O.2    42  LEU42      -0.2718
      5  CB        31.7860    8.1880   11.3520 C.3    42  LEU42       0.0284
      6  CG        31.9220    7.6790   12.7890 C.3    42  LEU42       0.0019
      7  CD1       30.5620    7.3960   13.4510 C.3    42  LEU42       0.0001
      8  CD2       32.7920    6.4320   12.8220 C.3    42  LEU42       0.0001
      9  N         32.3430   11.3280   11.1670 N.am   43  VAL43      -0.1980
     10  CA        32.9070   12.5850   11.6610 C.3    43  VAL43       0.1595
     11  C         31.7830   13.5780   11.9520 C.2    43  VAL43       0.2287
     12  O         31.7680   14.2290   13.0030 O.2    43  VAL43      -0.2864
     13  CB        33.8700   13.1830   10.6060 C.3    43  VAL43       0.0276
     14  CG1       34.3110   14.6060   10.9740 C.3    43  VAL43       0.0022
     15  CG2       35.0710   12.2820   10.4240 C.3    43  VAL43       0.0022
     16  N         29.5630   12.4550   15.0120 N.3    46  VAL46      -0.1231
     17  CA        30.1760   12.8130   16.2870 C.3    46  VAL46       0.1692
     18  C         29.9390   14.2920   16.6280 C.2    46  VAL46       0.2591
     19  O         29.5430   14.6010   17.7380 O.2    46  VAL46      -0.2718
     20  CB        31.6840   12.4980   16.3420 C.3    46  VAL46       0.0266
     21  CG1       32.3210   13.1000   17.6040 C.3    46  VAL46       0.0020
     22  CG2       31.9060   10.9960   16.2970 C.3    46  VAL46       0.0020
     23  N         30.1710   15.1870   15.6800 N.am   47  LYS47      -0.1980
     24  CA        30.0080   16.6330   15.9360 C.3    47  LYS47       0.1596
     25  C         28.5620   16.9960   16.2770 C.2    47  LYS47       0.2287
     26  O         28.3020   17.8070   17.1580 O.2    47  LYS47      -0.2864
     27  CB        30.4510   17.4430   14.7210 C.3    47  LYS47       0.0298
     28  CG        31.9200   17.3360   14.4230 C.3    47  LYS47       0.0038
     29  CD        32.3610   18.3340   13.3350 C.3    47  LYS47       0.0206
     30  CE        31.8660   17.9310   11.9570 C.3    47  LYS47       0.1093
     31  NZ        32.5690   18.6870   10.8690 N.3    47  LYS47      -0.1314
     32  N         27.5130   15.3900   19.9150 N.3    50  LYS50      -0.1245
     33  CA        28.0730   16.2810   20.9600 C.3    50  LYS50       0.1561
     34  C         27.2050   17.5180   21.2280 C.2    50  LYS50       0.2260
     35  O         27.1760   18.0380   22.3540 O.2    50  LYS50      -0.2867
     36  CB        29.4970   16.7170   20.5710 C.3    50  LYS50       0.0271
     37  CG        30.5570   15.6830   20.8780 C.3    50  LYS50       0.0035
     38  CD        31.8510   15.9190   20.1050 C.3    50  LYS50       0.0206
     39  CE        32.4880   17.2750   20.3980 C.3    50  LYS50       0.1093
     40  NZ        33.9770   17.1750   20.4270 N.3    50  LYS50      -0.1314
     41  N         26.1030   15.2200   26.5190 N.3    56  ARG56      -0.1245
     42  CA        27.3550   15.2700   27.2690 C.3    56  ARG56       0.1563
     43  C         27.2170   14.9090   28.7550 C.2    56  ARG56       0.2260
     44  O         28.2390   14.6940   29.4150 O.2    56  ARG56      -0.2867
     45  CB        28.0440   16.6270   27.0650 C.3    56  ARG56       0.0307
     46  CG        28.5080   16.8370   25.6090 C.3    56  ARG56       0.0489
     47  CD        30.0380   16.9580   25.4590 C.3    56  ARG56       0.2205
     48  NE        30.7260   15.7170   25.0820 N.pl3  56  ARG56      -0.0865
     49  CZ        32.0540   15.5580   25.0880 C.cat  56  ARG56       0.5346
     50  NH1       32.8640   16.5480   25.4530 N.pl3  56  ARG56       0.1354
     51  NH2       32.5890   14.4000   24.7330 N.pl3  56  ARG56       0.1354
     52  N         31.3710    9.4180   29.3560 N.3    60  VAL60      -0.1231
     53  CA        32.1140    9.4790   28.0920 C.3    60  VAL60       0.1692
     54  C         32.2210    8.1270   27.3790 C.2    60  VAL60       0.2592
     55  O         32.1820    8.0670   26.1510 O.2    60  VAL60      -0.2718
     56  CB        33.5280   10.0900   28.2750 C.3    60  VAL60       0.0266
     57  CG1       34.4730    9.1270   29.0310 C.3    60  VAL60       0.0020
     58  CG2       34.1250   10.4700   26.9200 C.3    60  VAL60       0.0020
     59  N         32.3600    7.0480   28.1410 N.am   61  ASP61      -0.1974
     60  CA        32.4120    5.7080   27.5560 C.3    61  ASP61       0.1709
     61  C         31.0760    5.3280   26.9240 C.2    61  ASP61       0.2293
     62  O         31.0460    4.5860   25.9530 O.2    61  ASP61      -0.2864
     63  CB        32.7920    4.6530   28.5950 C.3    61  ASP61       0.1436
     64  CG        34.2320    4.7830   29.0730 C.2    61  ASP61       0.3671
     65  OD1       35.0470    5.4920   28.4310 O.co2  61  ASP61      -0.2456
     66  OD2       34.5320    4.1620   30.1080 O.co2  61  ASP61      -0.2456
     67  N         30.6990    7.1590   23.6160 N.3    64  MET64      -0.1245
     68  CA        31.4190    6.3580   22.6400 C.3    64  MET64       0.1570
     69  C         30.5850    5.1610   22.1860 C.2    64  MET64       0.2261
     70  O         30.4710    4.8960   20.9890 O.2    64  MET64      -0.2867
     71  CB        32.7420    5.8590   23.2150 C.3    64  MET64       0.0387
     72  CG        33.7820    6.9400   23.3780 C.3    64  MET64       0.0595
     73  SD        34.6600    7.2660   21.8500 S.3    64  MET64      -0.1393
     74  CE        35.7320    5.8190   21.7680 C.3    64  MET64       0.0692
     75  N         27.4200    5.9570   19.9770 N.3    67  ILE67      -0.1231
     76  CA        27.8450    6.3520   18.6390 C.3    67  ILE67       0.1692
     77  C         28.2670    5.1270   17.8330 C.2    67  ILE67       0.2591
     78  O         27.8540    4.9610   16.6770 O.2    67  ILE67      -0.2718
     79  CB        28.9640    7.4280   18.6750 C.3    67  ILE67       0.0266
     80  CG1       28.3740    8.7380   19.2030 C.3    67  ILE67       0.0019
     81  CG2       29.5830    7.6200   17.2820 C.3    67  ILE67       0.0020
     82  CD1       29.3730    9.8240   19.4700 C.3    67  ILE67       0.0001
     83  N         29.0650    4.2660   18.4620 N.am   68  GLN68      -0.1979
     84  CA        29.6030    3.0790   17.8200 C.3    68  GLN68       0.1601
     85  C         28.5560    2.0510   17.4690 C.2    68  GLN68       0.2287
     86  O         28.7250    1.3310   16.5000 O.2    68  GLN68      -0.2864
     87  CB        30.6590    2.4150   18.7090 C.3    68  GLN68       0.0394
     88  CG        31.9700    3.1760   18.7930 C.3    68  GLN68       0.0908
     89  CD        32.8590    2.6250   19.9120 C.2    68  GLN68       0.2608
     90  OE1       32.3580    2.1870   20.9440 O.2    68  GLN68      -0.2717
     91  NE2       34.1710    2.6300   19.6940 N.am   68  GLN68      -0.0878
     92  N         40.0850    3.9330    8.4740 N.3   221  GLU221     -0.1231
     93  CA        40.5780    3.6210    9.8150 C.3   221  GLU221      0.1699
     94  C         39.4800    3.3110   10.8260 C.2   221  GLU221      0.2592
     95  O         39.4210    2.2030   11.3690 O.2   221  GLU221     -0.2718
     96  CB        41.4450    4.7850   10.3320 C.3   221  GLU221      0.0402
     97  CG        42.1300    4.5210   11.6760 C.3   221  GLU221      0.1161
     98  CD        42.7320    5.7740   12.2930 C.2   221  GLU221      0.3649
     99  OE1       43.2170    6.6470   11.5410 O.co2 221  GLU221     -0.2457
    100  OE2       42.7270    5.8790   13.5390 O.co2 221  GLU221     -0.2457
    101  N         38.6230    4.2940   11.0820 N.am  222  MET222     -0.1979
    102  CA        37.5900    4.1690   12.1050 C.3   222  MET222      0.1605
    103  C         36.5890    3.0820   11.7660 C.2   222  MET222      0.2287
    104  O         36.1850    2.3340   12.6520 O.2   222  MET222     -0.2864
    105  CB        36.8270    5.4810   12.2860 C.3   222  MET222      0.0413
    106  CG        37.6230    6.5770   12.9440 C.3   222  MET222      0.0598
    107  SD        36.5170    7.8170   13.5960 S.3   222  MET222     -0.1393
    108  CE        35.8810    8.5350   12.0930 C.3   222  MET222      0.0692
    109  N         38.0050   -0.4650   12.4450 N.3   225  GLU225     -0.1231
    110  CA        38.0650   -0.7550   13.8730 C.3   225  GLU225      0.1699
    111  C         36.6850   -1.0070   14.4590 C.2   225  GLU225      0.2592
    112  O         36.4780   -1.9810   15.1960 O.2   225  GLU225     -0.2718
    113  CB        38.7520    0.3810   14.6340 C.3   225  GLU225      0.0402
    114  CG        38.7820    0.1380   16.1340 C.3   225  GLU225      0.1161
    115  CD        39.9340    0.8200   16.8510 C.2   225  GLU225      0.3649
    116  OE1       40.5270    1.7820   16.3070 O.co2 225  GLU225     -0.2457
    117  OE2       40.2320    0.3870   17.9820 O.co2 225  GLU225     -0.2457
    118  N         35.7370   -0.1290   14.1350 N.am  226  ILE226     -0.1980
    119  CA        34.3790   -0.2760   14.6330 C.3   226  ILE226      0.1595
    120  C         33.7630   -1.5810   14.1470 C.2   226  ILE226      0.2287
    121  O         33.1300   -2.2860   14.9050 O.2   226  ILE226     -0.2864
    122  CB        33.4810    0.9130   14.2100 C.3   226  ILE226      0.0276
    123  CG1       33.9060    2.1780   14.9530 C.3   226  ILE226      0.0022
    124  CG2       32.0290    0.6280   14.5200 C.3   226  ILE226      0.0022
    125  CD1       33.2170    3.4390   14.4440 C.3   226  ILE226      0.0001
    126  N         35.3900   -4.6580   16.1040 N.3   229  VAL229     -0.1231
    127  CA        35.2630   -4.7340   17.5610 C.3   229  VAL229      0.1692
    128  C         33.8250   -4.5510   18.0240 C.2   229  VAL229      0.2591
    129  O         33.3220   -5.3150   18.8580 O.2   229  VAL229     -0.2718
    130  CB        36.1470   -3.6590   18.2490 C.3   229  VAL229      0.0266
    131  CG1       35.9940   -3.7090   19.7540 C.3   229  VAL229      0.0020
    132  CG2       37.5870   -3.8310   17.8620 C.3   229  VAL229      0.0020
    133  N         33.1630   -3.5270   17.4900 N.am  230  GLN230     -0.1979
    134  CA        31.8450   -3.1550   17.9650 C.3   230  GLN230      0.1601
    135  C         30.7440   -3.9270   17.2460 C.2   230  GLN230      0.2287
    136  O         29.8490   -4.4620   17.8760 O.2   230  GLN230     -0.2864
    137  CB        31.6380   -1.6410   17.8050 C.3   230  GLN230      0.0394
    138  CG        32.8070   -0.7740   18.3280 C.3   230  GLN230      0.0908
    139  CD        33.1120   -1.0370   19.7630 C.2   230  GLN230      0.2608
    140  OE1       32.2610   -1.5280   20.4990 O.2   230  GLN230     -0.2717
    141  NE2       34.3310   -0.7120   20.1880 N.am  230  GLN230     -0.0878
@<TRIPOS>BOND
     1    92    93    1
     2     1     2    1
     3    93    96    1
     4    93    94    1
     5    96    97    1
     6    15    13    1
     7    13    14    1
     8    13    10    1
     9    94   101   am
    10    94    95    2
    11    31    30    1
    12   101   102    1
    13     2     5    1
    14     2     3    1
    15     9    10    1
    16     9     3   am
    17     5     6    1
    18    99    98   ar
    19    10    11    1
    20    97    98    1
    21   103   102    1
    22   103   104    2
    23     3     4    2
    24    11    12    2
    25    30    29    1
    26   108   107    1
    27   102   105    1
    28   105   106    1
    29    98   100   ar
    30   109   110    1
    31     6     8    1
    32     6     7    1
    33   106   107    1
    34    29    28    1
    35   110   111    1
    36   110   113    1
    37   118   111   am
    38   118   119    1
    39   120   119    1
    40   120   121    2
    41   122   124    1
    42   122   119    1
    43   122   123    1
    44    28    27    1
    45   125   123    1
    46   111   112    2
    47   113   114    1
    48    27    24    1
    49    16    17    1
    50    23    24    1
    51    23    18   am
    52    24    25    1
    53   126   127    1
    54   114   115    1
    55    25    26    2
    56    17    20    1
    57    17    18    1
    58    22    20    1
    59   116   115   ar
    60    20    21    1
    61    86    85    2
    62    18    19    2
    63    78    77    2
    64   115   117   ar
    65   135   136    2
    66   135   134    1
    67    81    79    1
    68    85    84    1
    69   133   134    1
    70   133   128   am
    71   127   128    1
    72   127   130    1
    73   137   134    1
    74   137   138    1
    75    84    83    1
    76    84    87    1
    77    77    83   am
    78    77    76    1
    79   132   130    1
    80   128   129    2
    81   130   131    1
    82   138   139    1
    83    76    79    1
    84    76    75    1
    85    79    80    1
    86    87    88    1
    87    88    89    1
    88    80    82    1
    89    91    89   am
    90   139   141   am
    91   139   140    2
    92    89    90    2
    93    32    33    1
    94    38    39    1
    95    38    37    1
    96    39    40    1
    97    36    37    1
    98    36    33    1
    99    33    34    1
   100    70    69    2
   101    34    35    2
   102    74    73    1
   103    73    72    1
   104    69    68    1
   105    68    71    1
   106    68    67    1
   107    71    72    1
   108    51    49    1
   109    48    49    2
   110    48    47    1
   111    49    50    1
   112    47    46    1
   113    46    45    1
   114    62    61    2
   115    55    54    2
   116    41    42    1
   117    58    56    1
   118    61    60    1
   119    45    42    1
   120    42    43    1
   121    54    53    1
   122    54    59   am
   123    60    59    1
   124    60    63    1
   125    53    56    1
   126    53    52    1
   127    56    57    1
   128    65    64   ar
   129    63    64    1
   130    43    44    2
   131    64    66   ar
