@<TRIPOS>MOLECULE
tmp/2q7lA00.pdb
 161 152 0 0 0
SMALL
GASTEIGER

@<TRIPOS>ATOM
      1  N         30.4840    9.7660    9.7050 N.3    42  LEU42      -0.1231
      2  CA        30.7330    9.5010   11.1180 C.3    42  LEU42       0.1693
      3  C         31.3020   10.7260   11.8260 C.2    42  LEU42       0.2591
      4  O         30.9280   11.0180   12.9610 O.2    42  LEU42      -0.2718
      5  CB        31.6660    8.3010   11.2970 C.3    42  LEU42       0.0284
      6  CG        31.8600    7.8050   12.7280 C.3    42  LEU42       0.0019
      7  CD1       30.5330    7.6390   13.4930 C.3    42  LEU42       0.0001
      8  CD2       32.6210    6.4930   12.7000 C.3    42  LEU42       0.0001
      9  N         32.2000   11.4330   11.1460 N.am   43  VAL43      -0.1980
     10  CA        32.7620   12.6730   11.6610 C.3    43  VAL43       0.1595
     11  C         31.6470   13.6740   11.9600 C.2    43  VAL43       0.2287
     12  O         31.6530   14.3000   13.0160 O.2    43  VAL43      -0.2864
     13  CB        33.7840   13.2780   10.6650 C.3    43  VAL43       0.0276
     14  CG1       34.2080   14.6830   11.0970 C.3    43  VAL43       0.0022
     15  CG2       34.9950   12.3680   10.5280 C.3    43  VAL43       0.0022
     16  N         29.4450   12.5910   15.0610 N.3    46  VAL46      -0.1231
     17  CA        30.0560   12.8980   16.3640 C.3    46  VAL46       0.1692
     18  C         29.8150   14.3740   16.7230 C.2    46  VAL46       0.2591
     19  O         29.3380   14.6620   17.8020 O.2    46  VAL46      -0.2718
     20  CB        31.5540   12.5260   16.4140 C.3    46  VAL46       0.0266
     21  CG1       32.2040   12.9960   17.7310 C.3    46  VAL46       0.0020
     22  CG2       31.7170   11.0210   16.2610 C.3    46  VAL46       0.0020
     23  N         30.0950   15.2840   15.7990 N.am   47  LYS47      -0.1980
     24  CA        29.9030   16.7310   16.0180 C.3    47  LYS47       0.1596
     25  C         28.4350   17.0970   16.3020 C.2    47  LYS47       0.2287
     26  O         28.1410   17.9210   17.1720 O.2    47  LYS47      -0.2864
     27  CB        30.3970   17.5200   14.8010 C.3    47  LYS47       0.0298
     28  CG        31.8620   17.3350   14.4790 C.3    47  LYS47       0.0038
     29  CD        32.3930   18.3780   13.4710 C.3    47  LYS47       0.0206
     30  CE        31.9120   18.1460   12.0520 C.3    47  LYS47       0.1093
     31  NZ        32.5350   19.1480   11.1120 N.3    47  LYS47      -0.1314
     32  N         27.3090   15.4860   19.9090 N.3    50  LYS50      -0.1245
     33  CA        27.8450   16.3350   20.9930 C.3    50  LYS50       0.1561
     34  C         27.0120   17.5870   21.2740 C.2    50  LYS50       0.2260
     35  O         27.0320   18.1140   22.4040 O.2    50  LYS50      -0.2867
     36  CB        29.2690   16.7660   20.6560 C.3    50  LYS50       0.0271
     37  CG        30.2930   15.6630   20.7680 C.3    50  LYS50       0.0035
     38  CD        31.6220   16.0750   20.1450 C.3    50  LYS50       0.0206
     39  CE        32.3010   17.1630   20.9550 C.3    50  LYS50       0.1093
     40  NZ        33.6800   17.3670   20.4730 N.3    50  LYS50      -0.1314
     41  N         23.1680   15.2090   25.6880 N.3    55  PHE55      -0.1227
     42  CA        24.0600   14.1060   25.2900 C.3    55  PHE55       0.1736
     43  C         25.3410   14.0060   26.1250 C.2    55  PHE55       0.2595
     44  O         25.8120   12.9030   26.4600 O.2    55  PHE55      -0.2718
     45  CB        24.4520   14.2320   23.8160 C.3    55  PHE55       0.0547
     46  CG        25.3300   13.1000   23.3190 C.ar   55  PHE55      -0.0202
     47  CD1       24.7760   11.8750   22.9630 C.ar   55  PHE55      -0.0042
     48  CD2       26.7060   13.2660   23.2130 C.ar   55  PHE55      -0.0042
     49  CE1       25.5800   10.8350   22.5150 C.ar   55  PHE55      -0.0003
     50  CE2       27.5150   12.2360   22.7480 C.ar   55  PHE55      -0.0003
     51  CZ        26.9530   11.0180   22.4040 C.ar   55  PHE55      -0.0000
     52  N         25.9020   15.1630   26.4570 N.am   56  ARG56      -0.1980
     53  CA        27.1820   15.1780   27.1600 C.3    56  ARG56       0.1597
     54  C         27.0270   14.8550   28.6500 C.2    56  ARG56       0.2287
     55  O         28.0230   14.6860   29.3570 O.2    56  ARG56      -0.2864
     56  CB        27.9250   16.5000   26.9100 C.3    56  ARG56       0.0334
     57  CG        28.3180   16.6950   25.4340 C.3    56  ARG56       0.0492
     58  CD        29.4880   15.7820   24.9940 C.3    56  ARG56       0.2205
     59  NE        30.7880   16.4440   25.1230 N.pl3  56  ARG56      -0.0865
     60  CZ        31.9680   15.8200   25.0790 C.cat  56  ARG56       0.5346
     61  NH1       32.0440   14.5150   24.8770 N.pl3  56  ARG56       0.1354
     62  NH2       33.0930   16.5140   25.2180 N.pl3  56  ARG56       0.1354
     63  N         31.0520    9.3680   29.2580 N.3    60  VAL60      -0.1231
     64  CA        31.8060    9.4200   28.0020 C.3    60  VAL60       0.1692
     65  C         31.9300    8.0600   27.3110 C.2    60  VAL60       0.2592
     66  O         31.9250    7.9820   26.0800 O.2    60  VAL60      -0.2718
     67  CB        33.2250   10.0240   28.2160 C.3    60  VAL60       0.0266
     68  CG1       34.1060    9.0950   29.0630 C.3    60  VAL60       0.0020
     69  CG2       33.9040   10.3250   26.8750 C.3    60  VAL60       0.0020
     70  N         32.0430    6.9960   28.1000 N.am   61  ASP61      -0.1974
     71  CA        32.0840    5.6320   27.5700 C.3    61  ASP61       0.1709
     72  C         30.7450    5.2320   26.9330 C.2    61  ASP61       0.2293
     73  O         30.7250    4.4650   25.9720 O.2    61  ASP61      -0.2864
     74  CB        32.4700    4.6150   28.6590 C.3    61  ASP61       0.1436
     75  CG        33.9300    4.7430   29.1130 C.2    61  ASP61       0.3671
     76  OD1       34.7230    5.5020   28.5000 O.co2  61  ASP61      -0.2456
     77  OD2       34.2760    4.0610   30.1020 O.co2  61  ASP61      -0.2456
     78  N         28.6430    7.5830   25.6440 N.3    63  GLN63      -0.1231
     79  CA        28.6400    8.4340   24.4530 C.3    63  GLN63       0.1698
     80  C         29.3170    7.7070   23.3210 C.2    63  GLN63       0.2592
     81  O         28.7910    7.6440   22.2150 O.2    63  GLN63      -0.2718
     82  CB        29.3850    9.7430   24.7030 C.3    63  GLN63       0.0381
     83  CG        28.6940   10.6980   25.6710 C.3    63  GLN63       0.0905
     84  CD        29.5380   11.9160   25.9650 C.2    63  GLN63       0.2608
     85  OE1       29.5780   12.4150   27.1000 O.2    63  GLN63      -0.2717
     86  NE2       30.2300   12.3930   24.9570 N.am   63  GLN63      -0.0878
     87  N         30.4930    7.1530   23.6100 N.am   64  MET64      -0.1979
     88  CA        31.2220    6.3490   22.6390 C.3    64  MET64       0.1605
     89  C         30.3910    5.1540   22.1620 C.2    64  MET64       0.2287
     90  O         30.3050    4.8930   20.9570 O.2    64  MET64      -0.2864
     91  CB        32.5350    5.8460   23.2330 C.3    64  MET64       0.0413
     92  CG        33.5780    6.9200   23.4240 C.3    64  MET64       0.0598
     93  SD        34.2970    7.4510   21.8690 S.3    64  MET64      -0.1393
     94  CE        35.3700    6.0480   21.5240 C.3    64  MET64       0.0692
     95  N         27.1560    5.9750   19.8430 N.3    67  ILE67      -0.1231
     96  CA        27.5930    6.3620   18.5100 C.3    67  ILE67       0.1692
     97  C         28.0480    5.1380   17.7150 C.2    67  ILE67       0.2591
     98  O         27.6740    4.9900   16.5590 O.2    67  ILE67      -0.2718
     99  CB        28.7120    7.4380   18.5690 C.3    67  ILE67       0.0266
    100  CG1       28.0990    8.7580   19.0500 C.3    67  ILE67       0.0019
    101  CG2       29.3940    7.6020   17.2090 C.3    67  ILE67       0.0020
    102  CD1       29.1170    9.8110   19.4720 C.3    67  ILE67       0.0001
    103  N         28.8170    4.2600   18.3570 N.am   68  GLN68      -0.1979
    104  CA        29.4080    3.1000   17.6890 C.3    68  GLN68       0.1601
    105  C         28.4100    2.0100   17.3600 C.2    68  GLN68       0.2287
    106  O         28.6630    1.1930   16.4770 O.2    68  GLN68      -0.2864
    107  CB        30.5500    2.5100   18.5240 C.3    68  GLN68       0.0394
    108  CG        31.8330    3.2970   18.3800 C.3    68  GLN68       0.0908
    109  CD        32.9350    2.7850   19.2870 C.2    68  GLN68       0.2608
    110  OE1       32.7160    2.5610   20.4730 O.2    68  GLN68      -0.2717
    111  NE2       34.1270    2.5940   18.7270 N.am   68  GLN68      -0.0878
    112  N         40.1680    4.0530    8.4310 N.3   221  GLU221     -0.1231
    113  CA        40.5940    3.8140    9.8230 C.3   221  GLU221      0.1699
    114  C         39.4900    3.4750   10.8220 C.2   221  GLU221      0.2592
    115  O         39.4300    2.3500   11.3180 O.2   221  GLU221     -0.2718
    116  CB        41.3740    5.0450   10.3410 C.3   221  GLU221      0.0402
    117  CG        41.9920    4.8710   11.7340 C.3   221  GLU221      0.1161
    118  CD        42.7160    6.1150   12.2240 C.2   221  GLU221      0.3649
    119  OE1       43.1900    6.9070   11.3800 O.co2 221  GLU221     -0.2457
    120  OE2       42.8150    6.2940   13.4580 O.co2 221  GLU221     -0.2457
    121  N         38.6370    4.4450   11.1400 N.am  222  MET222     -0.1979
    122  CA        37.6250    4.2500   12.1800 C.3   222  MET222      0.1605
    123  C         36.6200    3.1930   11.8110 C.2   222  MET222      0.2287
    124  O         36.1570    2.4630   12.6720 O.2   222  MET222     -0.2864
    125  CB        36.8310    5.5210   12.4490 C.3   222  MET222      0.0413
    126  CG        37.5880    6.5840   13.1760 C.3   222  MET222      0.0598
    127  SD        36.4590    7.8440   13.7130 S.3   222  MET222     -0.1393
    128  CE        35.9380    8.5530   12.1540 C.3   222  MET222      0.0692
    129  N         37.9530   -0.3280   12.3690 N.3   225  GLU225     -0.1231
    130  CA        38.0150   -0.6770   13.7900 C.3   225  GLU225      0.1699
    131  C         36.6380   -0.9040   14.3790 C.2   225  GLU225      0.2592
    132  O         36.4370   -1.8630   15.1110 O.2   225  GLU225     -0.2718
    133  CB        38.7200    0.3890   14.6220 C.3   225  GLU225      0.0402
    134  CG        38.9250   -0.0810   16.0670 C.3   225  GLU225      0.1161
    135  CD        39.8190    0.8230   16.8840 C.2   225  GLU225      0.3649
    136  OE1       40.4060    1.7800   16.3220 O.co2 225  GLU225     -0.2457
    137  OE2       39.9190    0.5780   18.1020 O.co2 225  GLU225     -0.2457
    138  N         35.7050    0.0060   14.0990 N.am  226  ILE226     -0.1980
    139  CA        34.3340   -0.1530   14.5750 C.3   226  ILE226      0.1595
    140  C         33.7490   -1.4780   14.0950 C.2   226  ILE226      0.2287
    141  O         33.0880   -2.1760   14.8590 O.2   226  ILE226     -0.2864
    142  CB        33.4140    1.0170   14.1170 C.3   226  ILE226      0.0276
    143  CG1       33.7770    2.3030   14.8580 C.3   226  ILE226      0.0022
    144  CG2       31.9490    0.6890   14.3910 C.3   226  ILE226      0.0022
    145  CD1       33.2000    3.5610   14.2070 C.3   226  ILE226      0.0001
    146  N         35.4580   -4.5030   16.0270 N.3   229  VAL229     -0.1231
    147  CA        35.3480   -4.5400   17.4840 C.3   229  VAL229      0.1692
    148  C         33.9020   -4.3820   17.9460 C.2   229  VAL229      0.2591
    149  O         33.4280   -5.1400   18.7970 O.2   229  VAL229     -0.2718
    150  CB        36.2560   -3.4650   18.1330 C.3   229  VAL229      0.0266
    151  CG1       36.2190   -3.5490   19.6450 C.3   229  VAL229      0.0020
    152  CG2       37.6520   -3.6230   17.6530 C.3   229  VAL229      0.0020
    153  N         33.1860   -3.4120   17.3880 N.am  230  GLN230     -0.1979
    154  CA        31.8690   -3.0900   17.9060 C.3   230  GLN230      0.1601
    155  C         30.7460   -3.8390   17.2020 C.2   230  GLN230      0.2287
    156  O         29.8520   -4.3700   17.8460 O.2   230  GLN230     -0.2864
    157  CB        31.6240   -1.5830   17.8370 C.3   230  GLN230      0.0394
    158  CG        32.7240   -0.7430   18.5090 C.3   230  GLN230      0.0908
    159  CD        32.9470   -1.1020   19.9690 C.2   230  GLN230      0.2608
    160  OE1       32.0630   -1.6600   20.6320 O.2   230  GLN230     -0.2717
    161  NE2       34.1430   -0.7870   20.4800 N.am  230  GLN230     -0.0878
@<TRIPOS>BOND
     1   112   113    1
     2     1     2    1
     3   113   116    1
     4   113   114    1
     5   116   117    1
     6    15    13    1
     7    13    14    1
     8    13    10    1
     9   114   121   am
    10   114   115    2
    11    31    30    1
    12     2     5    1
    13     2     3    1
    14   121   122    1
    15     9    10    1
    16     9     3   am
    17     5     6    1
    18   119   118   ar
    19    10    11    1
    20   117   118    1
    21   123   122    1
    22   123   124    2
    23     3     4    2
    24    11    12    2
    25    30    29    1
    26   128   127    1
    27   122   125    1
    28   118   120   ar
    29   129   130    1
    30   125   126    1
    31     8     6    1
    32     6     7    1
    33   126   127    1
    34    29    28    1
    35   130   131    1
    36   130   133    1
    37   140   139    1
    38   140   141    2
    39   138   131   am
    40   138   139    1
    41   142   144    1
    42   142   139    1
    43   142   143    1
    44   145   143    1
    45   131   132    2
    46    28    27    1
    47   133   134    1
    48    27    24    1
    49    16    17    1
    50    23    24    1
    51    23    18   am
    52    24    25    1
    53   146   147    1
    54   134   135    1
    55    22    20    1
    56    25    26    2
    57   136   135   ar
    58    17    20    1
    59    17    18    1
    60    20    21    1
    61   106   105    2
    62    98    97    2
    63    18    19    2
    64   135   137   ar
    65   155   156    2
    66   155   154    1
    67   101    99    1
    68   105   104    1
    69   153   154    1
    70   153   148   am
    71   147   148    1
    72   147   150    1
    73   152   150    1
    74   104   103    1
    75   104   107    1
    76    97   103   am
    77    97    96    1
    78   157   154    1
    79   157   158    1
    80   148   149    2
    81   150   151    1
    82   108   107    1
    83   108   109    1
    84   158   159    1
    85    96    99    1
    86    96    95    1
    87    99   100    1
    88   111   109   am
    89   100   102    1
    90   109   110    2
    91    32    33    1
    92   159   161   am
    93   159   160    2
    94    38    37    1
    95    38    39    1
    96    40    39    1
    97    36    37    1
    98    36    33    1
    99    90    89    2
   100    33    34    1
   101    34    35    2
   102    94    93    1
   103    93    92    1
   104    89    88    1
   105    81    80    2
   106    51    49   ar
   107    51    50   ar
   108    49    47   ar
   109    88    91    1
   110    88    87    1
   111    50    48   ar
   112    47    46   ar
   113    48    46   ar
   114    91    92    1
   115    46    45    1
   116    80    87   am
   117    80    79    1
   118    45    42    1
   119    79    82    1
   120    79    78    1
   121    82    83    1
   122    61    60    1
   123    86    84   am
   124    58    59    1
   125    58    57    1
   126    60    59    2
   127    60    62    1
   128    42    41    1
   129    42    43    1
   130    57    56    1
   131    83    84    1
   132    84    85    2
   133    73    72    2
   134    66    65    2
   135    43    52   am
   136    43    44    2
   137    52    53    1
   138    69    67    1
   139    56    53    1
   140    72    71    1
   141    53    54    1
   142    65    64    1
   143    65    70   am
   144    71    70    1
   145    71    74    1
   146    64    67    1
   147    64    63    1
   148    67    68    1
   149    76    75   ar
   150    54    55    2
   151    74    75    1
   152    75    77   ar
