@<TRIPOS>MOLECULE
tmp/2q7mC00.pdb
 76 74 0 0 0
SMALL
GASTEIGER

@<TRIPOS>ATOM
      1  N         62.1140   56.8810   29.6710 N.3    20  VAL20      -0.1231
      2  CA        61.9610   57.7170   30.8600 C.3    20  VAL20       0.1692
      3  C         62.4050   56.9250   32.0790 C.2    20  VAL20       0.2592
      4  O         63.0170   57.4610   33.0030 O.2    20  VAL20      -0.2718
      5  CB        60.5020   58.1860   31.0390 C.3    20  VAL20       0.0266
      6  CG1       59.8300   57.4220   32.1780 C.3    20  VAL20       0.0020
      7  CG2       60.4570   59.6790   31.3150 C.3    20  VAL20       0.0020
      8  N         62.0840   55.6370   32.0590 N.am   21  VAL21      -0.1966
      9  CA        62.4090   54.7250   33.1400 C.3    21  VAL21       0.1727
     10  C         63.8670   54.3070   33.1190 C.2    21  VAL21       0.2616
     11  O         64.5050   54.2570   34.1640 O.2    21  VAL21      -0.2715
     12  CB        61.4970   53.5220   33.1010 C.3    21  VAL21       0.0290
     13  CG1       62.3080   52.2470   33.2330 C.3    21  VAL21       0.0023
     14  CG2       60.4330   53.6540   34.1690 C.3    21  VAL21       0.0023
     15  N         64.3920   54.0070   31.9340 N.am   22  GLN22      -0.1963
     16  CA        65.8010   53.6580   31.8100 C.3    22  GLN22       0.1733
     17  C         66.6050   54.8690   32.2830 C.2    22  GLN22       0.2616
     18  O         67.6720   54.7350   32.8760 O.2    22  GLN22      -0.2715
     19  CB        66.1620   53.3650   30.3610 C.3    22  GLN22       0.0408
     20  CG        66.7240   54.5780   29.6440 C.3    22  GLN22       0.0908
     21  CD        67.6950   54.2240   28.5380 C.2    22  GLN22       0.2608
     22  OE1       67.8770   54.9950   27.5950 O.2    22  GLN22      -0.2717
     23  NE2       68.3380   53.0630   28.6540 N.am   22  GLN22      -0.0878
     24  N         66.0730   56.0580   32.0250 N.am   23  ASN23      -0.1958
     25  CA        66.7350   57.2970   32.4250 C.3    23  ASN23       0.1819
     26  C         66.9270   57.3370   33.9310 C.2    23  ASN23       0.2622
     27  O         68.0330   57.5670   34.4120 O.2    23  ASN23      -0.2715
     28  CB        65.9100   58.5070   31.9860 C.3    23  ASN23       0.1195
     29  CG        66.5460   59.2610   30.8370 C.2    23  ASN23       0.2630
     30  OD1       67.2680   58.6840   30.0110 O.2    23  ASN23      -0.2716
     31  ND2       66.2690   60.5610   30.7660 N.am   23  ASN23      -0.0877
     32  N         65.8390   57.1090   34.6610 N.am   24  GLY24      -0.1940
     33  CA        65.8470   57.1010   36.1090 C.3    24  GLY24       0.2014
     34  C         66.8370   56.0860   36.6360 C.2    24  GLY24       0.2638
     35  O         67.2590   56.1580   37.7860 O.2    24  GLY24      -0.2714
     36  N         67.1970   55.1270   35.7910 N.am   25  PHE25      -0.1973
     37  CA        68.1600   54.0960   36.1610 C.3    25  PHE25       0.1639
     38  C         69.5340   54.7200   36.1360 C.2    25  PHE25       0.2290
     39  O         70.3010   54.6160   37.0910 O.2    25  PHE25      -0.2864
     40  CB        68.1570   52.9730   35.1250 C.3    25  PHE25       0.0560
     41  CG        69.3250   52.0370   35.2410 C.ar   25  PHE25      -0.0200
     42  CD1       69.9620   51.8490   36.4460 C.ar   25  PHE25      -0.0042
     43  CD2       69.7750   51.3410   34.1400 C.ar   25  PHE25      -0.0042
     44  CE1       71.0440   51.0200   36.5440 C.ar   25  PHE25      -0.0003
     45  CE2       70.8470   50.4970   34.2370 C.ar   25  PHE25      -0.0003
     46  CZ        71.4830   50.3370   35.4410 C.ar   25  PHE25      -0.0000
     47  N         70.3690   57.5810   36.3650 N.3    27  ALA27      -0.1231
     48  CA        70.4480   58.5420   37.4620 C.3    27  ALA27       0.1694
     49  C         70.3770   57.8830   38.8280 C.2    27  ALA27       0.2592
     50  O         70.3620   58.5660   39.8510 O.2    27  ALA27      -0.2718
     51  CB        69.3760   59.6220   37.3280 C.3    27  ALA27       0.0304
     52  N         70.3310   56.5560   38.8370 N.am   28  HIS28      -0.1976
     53  CA        70.3150   55.8030   40.0830 C.3    28  HIS28       0.1656
     54  C         71.7080   55.2210   40.2950 C.2    28  HIS28       0.2291
     55  O         72.2530   55.2660   41.3980 O.2    28  HIS28      -0.2864
     56  CB        69.2440   54.7140   40.0440 C.3    28  HIS28       0.0771
     57  CG        69.5960   53.4830   40.8160 C.ar   28  HIS28       0.0820
     58  ND1       69.1160   53.2370   42.0840 N.ar   28  HIS28      -0.2267
     59  CD2       70.3450   52.4060   40.4800 C.ar   28  HIS28       0.1154
     60  CE1       69.5650   52.0660   42.5000 C.ar   28  HIS28       0.1986
     61  NE2       70.3090   51.5390   41.5430 N.ar   28  HIS28      -0.2212
     62  N         76.5230   58.8900   32.4340 N.3    57  ASN57      -0.1240
     63  CA        75.1870   59.4180   32.5990 C.3    57  ASN57       0.1653
     64  C         75.0740   60.7680   31.8920 C.2    57  ASN57       0.2266
     65  O         74.2850   60.9230   30.9590 O.2    57  ASN57      -0.2867
     66  CB        74.8700   59.5590   34.0910 C.3    57  ASN57       0.1155
     67  CG        73.4980   60.1580   34.3520 C.2    57  ASN57       0.2627
     68  OD1       73.3670   61.1270   35.1070 O.2    57  ASN57      -0.2716
     69  ND2       72.4620   59.5540   33.7700 N.am   57  ASN57      -0.0877
     70  N         72.3720   62.1460   29.0240 N.3    61  VAL61      -0.1245
     71  CA        71.4630   63.2360   29.3150 C.3    61  VAL61       0.1561
     72  C         71.5600   64.2960   28.2340 C.2    61  VAL61       0.2260
     73  O         70.6350   65.0810   28.0520 O.2    61  VAL61      -0.2867
     74  CB        71.6830   63.8340   30.7230 C.3    61  VAL61       0.0252
     75  CG1       71.9110   65.3460   30.6380 C.3    61  VAL61       0.0019
     76  CG2       70.4830   63.5360   31.6210 C.3    61  VAL61       0.0019
@<TRIPOS>BOND
     1    22    21    2
     2    73    72    2
     3    72    71    1
     4    21    23   am
     5    21    20    1
     6    70    71    1
     7    71    74    1
     8    20    19    1
     9     1     2    1
    10    30    29    2
    11    19    16    1
    12    75    74    1
    13    74    76    1
    14    31    29   am
    15    29    28    1
    16     2     5    1
    17     2     3    1
    18    65    64    2
    19     5     7    1
    20     5     6    1
    21    16    15    1
    22    16    17    1
    23    64    63    1
    24    15    10   am
    25    28    25    1
    26    24    17   am
    27    24    25    1
    28     8     3   am
    29     8     9    1
    30     3     4    2
    31    17    18    2
    32    25    26    1
    33    62    63    1
    34    63    66    1
    35    12     9    1
    36    12    13    1
    37    12    14    1
    38    10     9    1
    39    10    11    2
    40    69    67   am
    41    26    27    2
    42    26    32   am
    43    66    67    1
    44    43    45   ar
    45    43    41   ar
    46    45    46   ar
    47    67    68    2
    48    32    33    1
    49    40    41    1
    50    40    37    1
    51    41    42   ar
    52    46    44   ar
    53    36    37    1
    54    36    34   am
    55    33    34    1
    56    38    37    1
    57    38    39    2
    58    47    48    1
    59    42    44   ar
    60    34    35    2
    61    51    48    1
    62    48    49    1
    63    49    52   am
    64    49    50    2
    65    52    53    1
    66    56    53    1
    67    56    57    1
    68    53    54    1
    69    54    55    2
    70    59    57   ar
    71    59    61   ar
    72    57    58   ar
    73    61    60   ar
    74    58    60   ar
