@<TRIPOS>MOLECULE
tmp/2q7mC01.pdb
 114 109 0 0 0
SMALL
GASTEIGER

@<TRIPOS>ATOM
      1  N         76.1700   61.9550   29.5630 N.3    59  ASN59      -0.1240
      2  CA        76.5030   61.8630   28.1350 C.3    59  ASN59       0.1653
      3  C         75.2440   61.3990   27.4610 C.2    59  ASN59       0.2266
      4  O         75.0710   61.5380   26.2460 O.2    59  ASN59      -0.2867
      5  CB        77.5450   60.7880   27.8580 C.3    59  ASN59       0.1155
      6  CG        78.7920   60.9850   28.6460 C.2    59  ASN59       0.2627
      7  OD1       78.9080   61.9520   29.4050 O.2    59  ASN59      -0.2716
      8  ND2       79.7090   60.0250   28.5530 N.am   59  ASN59      -0.0877
      9  N         72.6780   64.3190   27.5150 N.3    62  ASP62      -0.1225
     10  CA        72.8650   65.3010   26.4480 C.3    62  ASP62       0.1805
     11  C         72.1270   64.7900   25.2250 C.2    62  ASP62       0.2597
     12  O         71.7300   65.5590   24.3470 O.2    62  ASP62      -0.2718
     13  CB        74.3500   65.4270   26.0690 C.3    62  ASP62       0.1424
     14  CG        75.2200   65.9470   27.2010 C.2    62  ASP62       0.3668
     15  OD1       74.6700   66.2950   28.2680 O.co2  62  ASP62      -0.2456
     16  OD2       76.4630   66.0070   27.0120 O.co2  62  ASP62      -0.2456
     17  N         72.0100   63.4680   25.1600 N.am   63  ALA63      -0.1979
     18  CA        71.4090   62.7900   24.0200 C.3    63  ALA63       0.1597
     19  C         69.8930   62.6550   24.0660 C.2    63  ALA63       0.2287
     20  O         69.2450   62.6000   23.0210 O.2    63  ALA63      -0.2864
     21  CB        72.0580   61.4270   23.8190 C.3    63  ALA63       0.0319
     22  N         67.8530   65.6790   21.9800 N.3    66  THR66      -0.1218
     23  CA        68.1290   65.5840   20.5460 C.3    66  THR66       0.1862
     24  C         67.6540   64.2780   19.9120 C.2    66  THR66       0.2287
     25  O         67.6090   64.1480   18.6880 O.2    66  THR66      -0.2866
     26  CB        69.6230   65.8150   20.2700 C.3    66  THR66       0.1770
     27  OG1       70.3420   65.7870   21.5100 O.3    66  THR66      -0.2211
     28  CG2       69.8410   67.1660   19.5880 C.3    66  THR66       0.0375
     29  N         63.8540   63.7940   17.0340 N.3    70  VAL70      -0.1245
     30  CA        63.5820   62.9470   15.8730 C.3    70  VAL70       0.1561
     31  C         62.7210   61.7060   16.1410 C.2    70  VAL70       0.2260
     32  O         62.2130   61.0880   15.2040 O.2    70  VAL70      -0.2867
     33  CB        64.8530   62.6040   15.1060 C.3    70  VAL70       0.0252
     34  CG1       65.7570   63.8350   15.0080 C.3    70  VAL70       0.0019
     35  CG2       65.5550   61.4330   15.7760 C.3    70  VAL70       0.0019
     36  N         67.3700   52.5800   20.0500 N.3    90  TYR90      -0.1241
     37  CA        68.1270   53.6520   20.6540 C.3    90  TYR90       0.1605
     38  C         68.2250   53.4210   22.1430 C.2    90  TYR90       0.2264
     39  O         69.2210   53.7670   22.7660 O.2    90  TYR90      -0.2867
     40  CB        67.4610   54.9950   20.3900 C.3    90  TYR90       0.0534
     41  CG        68.2820   56.1470   20.8880 C.ar   90  TYR90      -0.0201
     42  CD1       69.3160   56.6710   20.1170 C.ar   90  TYR90      -0.0009
     43  CD2       68.0860   56.6580   22.1610 C.ar   90  TYR90      -0.0009
     44  CE1       70.0940   57.7290   20.5770 C.ar   90  TYR90       0.0417
     45  CE2       68.8530   57.7160   22.6370 C.ar   90  TYR90       0.0417
     46  CZ        69.8540   58.2530   21.8420 C.ar   90  TYR90       0.1957
     47  OH        70.6040   59.3130   22.3180 O.3    90  TYR90      -0.2866
     48  N         81.4200   60.3600   23.4880 N.3   112  TYR112     -0.1227
     49  CA        80.1460   61.0710   23.6010 C.3   112  TYR112      0.1736
     50  C         79.5110   60.9840   22.2240 C.2   112  TYR112      0.2595
     51  O         79.7410   61.8560   21.3890 O.2   112  TYR112     -0.2718
     52  CB        80.3570   62.5630   23.8850 C.3   112  TYR112      0.0548
     53  CG        80.5960   62.9200   25.3290 C.ar  112  TYR112     -0.0200
     54  CD1       81.5660   62.2430   26.0740 C.ar  112  TYR112     -0.0009
     55  CD2       79.9100   63.9780   25.9380 C.ar  112  TYR112     -0.0009
     56  CE1       81.8470   62.5890   27.4120 C.ar  112  TYR112      0.0417
     57  CE2       80.1680   64.3290   27.2880 C.ar  112  TYR112      0.0417
     58  CZ        81.1500   63.6280   28.0210 C.ar  112  TYR112      0.1957
     59  OH        81.4450   63.9420   29.3460 O.3   112  TYR112     -0.2866
     60  N         78.7200   59.9460   21.9810 N.am  113  ILE113     -0.1966
     61  CA        78.0910   59.7770   20.6780 C.3   113  ILE113      0.1727
     62  C         76.8750   58.8890   20.7960 C.2   113  ILE113      0.2616
     63  O         75.7530   59.3470   21.0070 O.2   113  ILE113     -0.2715
     64  CB        79.0670   59.1150   19.7010 C.3   113  ILE113      0.0290
     65  CG1       80.2900   59.9980   19.4590 C.3   113  ILE113      0.0022
     66  CG2       78.3650   58.7570   18.4050 C.3   113  ILE113      0.0023
     67  CD1       81.6000   59.3310   19.8400 C.3   113  ILE113      0.0001
     68  N         77.1340   57.6050   20.5930 N.am  114  PHE114     -0.1974
     69  CA        76.1400   56.5540   20.6660 C.3   114  PHE114      0.1639
     70  C         74.8630   56.6590   19.8440 C.2   114  PHE114      0.2290
     71  O         73.9570   57.4430   20.1380 O.2   114  PHE114     -0.2864
     72  CB        75.8740   56.1250   22.1050 C.3   114  PHE114      0.0560
     73  CG        74.8040   56.9150   22.7860 C.ar  114  PHE114     -0.0200
     74  CD1       73.5200   56.4240   22.8630 C.ar  114  PHE114     -0.0042
     75  CD2       75.0950   58.1270   23.3920 C.ar  114  PHE114     -0.0042
     76  CE1       72.5410   57.1370   23.4990 C.ar  114  PHE114     -0.0003
     77  CE2       74.1150   58.8470   24.0260 C.ar  114  PHE114     -0.0003
     78  CZ        72.8350   58.3430   24.0900 C.ar  114  PHE114     -0.0000
     79  N         74.5360   57.2830   16.3130 N.3   116  LYS116     -0.1245
     80  CA        74.3760   58.2920   15.2650 C.3   116  LYS116      0.1561
     81  C         73.5000   57.7940   14.1290 C.2   116  LYS116      0.2260
     82  O         72.7290   58.5600   13.5640 O.2   116  LYS116     -0.2867
     83  CB        75.7150   58.8080   14.7360 C.3   116  LYS116      0.0271
     84  CG        76.5790   57.7210   14.1190 C.3   116  LYS116      0.0035
     85  CD        77.1970   58.1280   12.7680 C.3   116  LYS116      0.0206
     86  CE        77.6090   56.8850   11.9390 C.3   116  LYS116      0.1093
     87  NZ        78.8200   57.0800   11.0700 N.3   116  LYS116     -0.1314
     88  N         69.4140   58.0770   15.2390 N.3   119  ILE119     -0.1231
     89  CA        68.9360   59.4600   15.1710 C.3   119  ILE119      0.1692
     90  C         69.0130   59.9760   13.7440 C.2   119  ILE119      0.2591
     91  O         68.1490   60.7190   13.2830 O.2   119  ILE119     -0.2718
     92  CB        69.7230   60.3780   16.1280 C.3   119  ILE119      0.0266
     93  CG1       71.1070   59.7870   16.4100 C.3   119  ILE119      0.0019
     94  CG2       68.9440   60.5990   17.4260 C.3   119  ILE119      0.0020
     95  CD1       71.3610   59.4910   17.8840 C.3   119  ILE119      0.0001
     96  N         70.0650   59.5870   13.0450 N.am  120  LEU120     -0.1980
     97  CA        70.2090   59.9910   11.6650 C.3   120  LEU120      0.1596
     98  C         68.9840   59.4900   10.9150 C.2   120  LEU120      0.2287
     99  O         68.3100   60.2610   10.2400 O.2   120  LEU120     -0.2864
    100  CB        71.4750   59.3920   11.0720 C.3   120  LEU120      0.0297
    101  CG        71.5370   59.5060    9.5600 C.3   120  LEU120      0.0022
    102  CD1       70.8180   58.3240    8.9270 C.3   120  LEU120      0.0001
    103  CD2       70.9170   60.8240    9.1510 C.3   120  LEU120      0.0001
    104  N         65.7530   60.9980   11.8880 N.3   123  PHE123     -0.1241
    105  CA        65.7870   62.3230   11.3030 C.3   123  PHE123      0.1605
    106  C         65.4520   62.2900    9.8130 C.2   123  PHE123      0.2264
    107  O         65.0770   63.3030    9.2320 O.2   123  PHE123     -0.2867
    108  CB        67.1580   62.9390   11.5410 C.3   123  PHE123      0.0534
    109  CG        67.4710   64.0820   10.6360 C.ar  123  PHE123     -0.0203
    110  CD1       67.9190   63.8540    9.3440 C.ar  123  PHE123     -0.0042
    111  CD2       67.3740   65.3850   11.0950 C.ar  123  PHE123     -0.0042
    112  CE1       68.2330   64.9030    8.5170 C.ar  123  PHE123     -0.0003
    113  CE2       67.6800   66.4440   10.2710 C.ar  123  PHE123     -0.0003
    114  CZ        68.1150   66.2040    8.9790 C.ar  123  PHE123     -0.0000
@<TRIPOS>BOND
     1   112   114   ar
     2   112   110   ar
     3   102   101    1
     4   114   113   ar
     5   103   101    1
     6   107   106    2
     7   110   109   ar
     8   101   100    1
     9   106   105    1
    10    99    98    2
    11   113   111   ar
    12   109   111   ar
    13   109   108    1
    14    98    97    1
    15    87    86    1
    16   100    97    1
    17   105   108    1
    18   105   104    1
    19    97    96    1
    20    86    85    1
    21    85    84    1
    22    96    90   am
    23    91    90    2
    24    82    81    2
    25    90    89    1
    26    84    83    1
    27    81    80    1
    28    83    80    1
    29    34    33    1
    30    33    35    1
    31    33    30    1
    32    89    88    1
    33    89    92    1
    34    32    31    2
    35    80    79    1
    36    30    31    1
    37    30    29    1
    38    92    93    1
    39    92    94    1
    40    93    95    1
    41    66    64    1
    42    25    24    2
    43    65    64    1
    44    65    67    1
    45    28    26    1
    46    64    61    1
    47    70    71    2
    48    70    69    1
    49    24    23    1
    50    36    37    1
    51    42    44   ar
    52    42    41   ar
    53    26    23    1
    54    26    27    1
    55    40    37    1
    56    40    41    1
    57    23    22    1
    58    44    46   ar
    59    68    69    1
    60    68    62   am
    61    37    38    1
    62    69    72    1
    63    61    62    1
    64    61    60    1
    65    62    63    2
    66    41    43   ar
    67    51    50    2
    68    46    47    1
    69    46    45   ar
    70    60    50   am
    71    72    73    1
    72    38    39    2
    73    43    45   ar
    74    50    49    1
    75    73    74   ar
    76    73    75   ar
    77    74    76   ar
    78    20    19    2
    79    75    77   ar
    80    48    49    1
    81    76    78   ar
    82    49    52    1
    83    21    18    1
    84    52    53    1
    85    18    19    1
    86    18    17    1
    87    77    78   ar
    88    12    11    2
    89    17    11   am
    90    11    10    1
    91    53    55   ar
    92    53    54   ar
    93    55    57   ar
    94    13    10    1
    95    13    14    1
    96    54    56   ar
    97     4     3    2
    98    10     9    1
    99    16    14   ar
   100    14    15   ar
   101    57    58   ar
   102    56    58   ar
   103     3     2    1
   104     5     2    1
   105     5     6    1
   106    58    59    1
   107     2     1    1
   108     8     6   am
   109     6     7    2
