@<TRIPOS>MOLECULE
tmp/2q7qB00.pdb
 83 81 0 0 0
SMALL
GASTEIGER

@<TRIPOS>ATOM
      1  N         56.5900   18.4490   25.7690 N.3    26  ASP26      -0.1225
      2  CA        55.5550   18.0340   26.7110 C.3    26  ASP26       0.1805
      3  C         54.2470   18.6690   26.2230 C.2    26  ASP26       0.2598
      4  O         53.9230   19.8000   26.6080 O.2    26  ASP26      -0.2718
      5  CB        55.9350   18.5440   28.1220 C.3    26  ASP26       0.1424
      6  CG        54.8570   18.2690   29.1920 C.2    26  ASP26       0.3668
      7  OD1       54.0400   17.3470   29.0020 O.co2  26  ASP26      -0.2456
      8  OD2       54.8350   18.9930   30.2370 O.co2  26  ASP26      -0.2456
      9  N         53.5320   17.9700   25.3390 N.am   27  GLY27      -0.1957
     10  CA        52.2420   18.4550   24.8250 C.3    27  GLY27       0.1869
     11  C         51.9100   17.8100   23.4970 C.2    27  GLY27       0.2309
     12  O         52.5230   16.8280   23.1000 O.2    27  GLY27      -0.2863
     13  N         54.6740   27.2970   21.7870 N.3    69  ASP69      -0.1239
     14  CA        53.3030   26.8000   21.7410 C.3    69  ASP69       0.1674
     15  C         52.4130   27.5930   20.7870 C.2    69  ASP69       0.2266
     16  O         52.7020   28.7390   20.3710 O.2    69  ASP69      -0.2867
     17  CB        52.7080   26.8550   23.1280 C.3    69  ASP69       0.1410
     18  CG        53.3620   25.8740   24.0860 C.2    69  ASP69       0.3668
     19  OD1       53.9530   24.8750   23.6070 O.co2  69  ASP69      -0.2456
     20  OD2       53.2570   26.1090   25.3060 O.co2  69  ASP69      -0.2456
     21  N         59.8070   22.3030   30.9960 N.3    97  ASN97      -0.1225
     22  CA        58.5770   22.0900   30.2120 C.3    97  ASN97       0.1785
     23  C         57.3110   21.6810   30.9920 C.2    97  ASN97       0.2597
     24  O         56.3150   21.3290   30.3580 O.2    97  ASN97      -0.2718
     25  CB        58.8830   21.1640   29.0230 C.3    97  ASN97       0.1169
     26  CG        59.0350   19.6860   29.4070 C.2    97  ASN97       0.2627
     27  OD1       58.7730   19.3070   30.5350 O.2    97  ASN97      -0.2716
     28  ND2       59.5090   18.8700   28.4660 N.am   97  ASN97      -0.0877
     29  N         57.3090   21.7310   32.3380 N.am   98  ASP98      -0.1960
     30  CA        56.1040   21.4780   33.1240 C.3    98  ASP98       0.1840
     31  C         55.2840   22.7350   33.3980 C.2    98  ASP98       0.2622
     32  O         54.4200   22.7530   34.2640 O.2    98  ASP98      -0.2715
     33  CB        56.4410   20.8320   34.4830 C.3    98  ASP98       0.1450
     34  CG        57.0970   19.4840   34.3670 C.2    98  ASP98       0.3671
     35  OD1       56.8740   18.7710   33.3680 O.co2  98  ASP98      -0.2456
     36  OD2       57.8710   19.1460   35.3030 O.co2  98  ASP98      -0.2456
     37  N         55.5970   23.8120   32.6820 N.am   99  VAL99      -0.1963
     38  CA        54.8170   25.0200   32.7040 C.3    99  VAL99       0.1727
     39  C         54.2100   25.2630   31.3140 C.2    99  VAL99       0.2616
     40  O         54.6580   24.7120   30.3200 O.2    99  VAL99      -0.2715
     41  CB        55.6840   26.2160   33.1640 C.3    99  VAL99       0.0290
     42  CG1       56.1110   25.9980   34.6240 C.3    99  VAL99       0.0023
     43  CG2       56.9100   26.3920   32.2660 C.3    99  VAL99       0.0023
     44  N         53.1910   26.0880   31.2950 N.am  100  ASN100     -0.1958
     45  CA        52.4880   26.4460   30.0700 C.3   100  ASN100      0.1819
     46  C         53.1860   27.5880   29.3660 C.2   100  ASN100      0.2621
     47  O         53.1000   28.7150   29.8470 O.2   100  ASN100     -0.2715
     48  CB        51.1060   26.8740   30.4630 C.3   100  ASN100      0.1195
     49  CG        50.2110   27.1900   29.2740 C.2   100  ASN100      0.2630
     50  OD1       50.5140   26.8160   28.1770 O.2   100  ASN100     -0.2716
     51  ND2       49.1300   27.9070   29.5240 N.am  100  ASN100     -0.0877
     52  N         53.8500   27.3320   28.2460 N.am  101  TRP101     -0.1974
     53  CA        54.5870   28.4110   27.5560 C.3   101  TRP101      0.1640
     54  C         53.6260   29.3670   26.7940 C.2   101  TRP101      0.2290
     55  O         54.0880   30.3450   26.2010 O.2   101  TRP101     -0.2864
     56  CB        55.7870   27.9160   26.7230 C.3   101  TRP101      0.0576
     57  CG        56.9120   27.6250   27.6550 C.ar  101  TRP101      0.0006
     58  CD1       57.4390   26.4100   27.9670 C.ar  101  TRP101      0.0946
     59  CD2       57.5840   28.5830   28.4650 C.ar  101  TRP101      0.0152
     60  NE1       58.3960   26.5590   28.9690 N.ar  101  TRP101     -0.2442
     61  CE2       58.5180   27.8900   29.2570 C.ar  101  TRP101      0.0810
     62  CE3       57.5070   29.9710   28.5750 C.ar  101  TRP101      0.0012
     63  CZ2       59.3580   28.5420   30.1610 C.ar  101  TRP101      0.0191
     64  CZ3       58.3640   30.6150   29.4720 C.ar  101  TRP101      0.0001
     65  CH2       59.2490   29.9000   30.2540 C.ar  101  TRP101      0.0015
     66  N         46.1850   26.3610   26.2520 N.3   110  PHE110     -0.1241
     67  CA        47.1970   25.6150   25.5440 C.3   110  PHE110      0.1605
     68  C         46.5440   24.7260   24.4690 C.2   110  PHE110      0.2264
     69  O         45.7170   23.8700   24.7830 O.2   110  PHE110     -0.2867
     70  CB        48.0130   24.7350   26.5010 C.3   110  PHE110      0.0534
     71  CG        48.9130   23.7740   25.7950 C.ar  110  PHE110     -0.0203
     72  CD1       50.0110   24.2200   25.0790 C.ar  110  PHE110     -0.0042
     73  CD2       48.6470   22.3990   25.8020 C.ar  110  PHE110     -0.0042
     74  CE1       50.8120   23.3530   24.3940 C.ar  110  PHE110     -0.0003
     75  CE2       49.4530   21.5330   25.1210 C.ar  110  PHE110     -0.0003
     76  CZ        50.5380   21.9980   24.4070 C.ar  110  PHE110     -0.0000
     77  N         52.0290   22.2230   20.6280 N.3   113  THR113     -0.1218
     78  CA        53.4460   22.6290   20.7190 C.3   113  THR113      0.1862
     79  C         54.1570   22.3910   19.3860 C.2   113  THR113      0.2287
     80  O         53.9180   21.3860   18.6930 O.2   113  THR113     -0.2866
     81  CB        54.1670   21.8440   21.8230 C.3   113  THR113      0.1770
     82  OG1       53.4190   21.9320   23.0130 O.3   113  THR113     -0.2211
     83  CG2       55.5510   22.4080   22.1060 C.3   113  THR113      0.0375
@<TRIPOS>BOND
     1    80    79    2
     2    79    78    1
     3    16    15    2
     4    77    78    1
     5    78    81    1
     6    15    14    1
     7    14    13    1
     8    14    17    1
     9    81    83    1
    10    81    82    1
    11    12    11    2
    12    17    18    1
    13    11    10    1
    14    19    18   ar
    15    18    20   ar
    16    74    76   ar
    17    74    72   ar
    18    76    75   ar
    19    68    69    2
    20    68    67    1
    21    10     9    1
    22    72    71   ar
    23    75    73   ar
    24     9     3   am
    25    67    66    1
    26    67    70    1
    27     1     2    1
    28    71    73   ar
    29    71    70    1
    30    55    54    2
    31     3     4    2
    32     3     2    1
    33     2     5    1
    34    56    53    1
    35    56    57    1
    36    54    53    1
    37    53    52    1
    38    57    58   ar
    39    57    59   ar
    40    58    60   ar
    41     5     6    1
    42    50    49    2
    43    52    46   am
    44    59    62   ar
    45    59    61   ar
    46    28    26   am
    47    62    64   ar
    48    60    61   ar
    49     7     6   ar
    50    25    26    1
    51    25    22    1
    52     6     8   ar
    53    61    63   ar
    54    49    51   am
    55    49    48    1
    56    46    47    2
    57    46    45    1
    58    26    27    2
    59    64    65   ar
    60    45    48    1
    61    45    44    1
    62    63    65   ar
    63    22    23    1
    64    22    21    1
    65    40    39    2
    66    24    23    2
    67    23    29   am
    68    44    39   am
    69    39    38    1
    70    43    41    1
    71    29    30    1
    72    37    38    1
    73    37    31   am
    74    38    41    1
    75    30    31    1
    76    30    33    1
    77    41    42    1
    78    35    34   ar
    79    31    32    2
    80    34    33    1
    81    34    36   ar
