@<TRIPOS>MOLECULE
tmp/2q7rE01.pdb
 118 115 0 0 0
SMALL
GASTEIGER

@<TRIPOS>ATOM
      1  N         24.5310   17.0370   42.5170 N.3    58  ASN58      -0.1240
      2  CA        23.2680   17.5800   42.0400 C.3    58  ASN58       0.1653
      3  C         22.9680   18.8690   42.7890 C.2    58  ASN58       0.2266
      4  O         22.4300   19.8210   42.2200 O.2    58  ASN58      -0.2867
      5  CB        22.1400   16.5750   42.2640 C.3    58  ASN58       0.1155
      6  CG        21.8340   15.7700   41.0270 C.2    58  ASN58       0.2627
      7  OD1       22.6100   15.7720   40.0620 O.2    58  ASN58      -0.2716
      8  ND2       20.6970   15.0790   41.0400 N.am   58  ASN58      -0.0877
      9  N         25.3630   21.7960   41.8670 N.3    61  ASP61      -0.1225
     10  CA        24.9460   22.6010   40.7310 C.3    61  ASP61       0.1805
     11  C         23.8560   23.5880   41.1390 C.2    61  ASP61       0.2597
     12  O         23.5440   24.5220   40.4070 O.2    61  ASP61      -0.2718
     13  CB        24.4600   21.6980   39.5930 C.3    61  ASP61       0.1424
     14  CG        25.2140   20.3830   39.5340 C.2    61  ASP61       0.3668
     15  OD1       26.2490   20.2550   40.2200 O.co2  61  ASP61      -0.2456
     16  OD2       24.7660   19.4710   38.8100 O.co2  61  ASP61      -0.2456
     17  N         23.2970   23.3880   42.3260 N.am   62  ALA62      -0.1979
     18  CA        22.2180   24.2410   42.8220 C.3    62  ALA62       0.1597
     19  C         22.6990   25.4490   43.6030 C.2    62  ALA62       0.2287
     20  O         22.2620   26.5710   43.3510 O.2    62  ALA62      -0.2864
     21  CB        21.2510   23.4310   43.6670 C.3    62  ALA62       0.0319
     22  N         23.1740   29.1800   41.9450 N.3    65  THR65      -0.1203
     23  CA        21.8910   29.7720   41.5600 C.3    65  THR65       0.1994
     24  C         21.0110   30.0410   42.7770 C.2    65  THR65       0.2617
     25  O         20.1400   30.9120   42.7470 O.2    65  THR65      -0.2717
     26  CB        21.1430   28.9180   40.4990 C.3    65  THR65       0.1784
     27  OG1       22.0770   28.1510   39.7330 O.3    65  THR65      -0.2211
     28  CG2       20.3390   29.8150   39.5740 C.3    65  THR65       0.0376
     29  N         21.2420   29.2790   43.8420 N.am   66  PHE66      -0.1975
     30  CA        20.4840   29.4250   45.0800 C.3    66  PHE66       0.1639
     31  C         20.9590   30.6460   45.8400 C.2    66  PHE66       0.2290
     32  O         20.1750   31.5480   46.1320 O.2    66  PHE66      -0.2864
     33  CB        20.6950   28.2030   45.9620 C.3    66  PHE66       0.0560
     34  CG        20.5170   28.4680   47.4310 C.ar   66  PHE66      -0.0200
     35  CD1       19.4420   29.2090   47.9010 C.ar   66  PHE66      -0.0042
     36  CD2       21.3910   27.9130   48.3470 C.ar   66  PHE66      -0.0042
     37  CE1       19.2570   29.4070   49.2600 C.ar   66  PHE66      -0.0003
     38  CE2       21.2120   28.1040   49.7050 C.ar   66  PHE66      -0.0003
     39  CZ        20.1460   28.8520   50.1610 C.ar   66  PHE66      -0.0000
     40  N         14.9090   26.1300   52.1720 N.3    88  TYR88      -0.1241
     41  CA        15.6150   25.4860   51.0760 C.3    88  TYR88       0.1605
     42  C         16.6250   24.5060   51.6490 C.2    88  TYR88       0.2264
     43  O         16.6950   23.3550   51.2230 O.2    88  TYR88      -0.2867
     44  CB        16.3120   26.5250   50.1920 C.3    88  TYR88       0.0534
     45  CG        17.1070   25.9360   49.0460 C.ar   88  TYR88      -0.0201
     46  CD1       17.0690   24.5790   48.7700 C.ar   88  TYR88      -0.0009
     47  CD2       17.8670   26.7370   48.2180 C.ar   88  TYR88      -0.0009
     48  CE1       17.8040   24.0270   47.7360 C.ar   88  TYR88       0.0417
     49  CE2       18.5940   26.1950   47.1640 C.ar   88  TYR88       0.0417
     50  CZ        18.5590   24.8360   46.9310 C.ar   88  TYR88       0.1957
     51  OH        19.2720   24.2740   45.8950 O.3    88  TYR88      -0.2866
     52  N         18.1620   16.1890   39.9060 N.3   110  TYR110     -0.1227
     53  CA        18.1690   17.5240   39.3270 C.3   110  TYR110      0.1736
     54  C         16.8670   18.2640   39.5740 C.2   110  TYR110      0.2595
     55  O         15.8200   17.8850   39.0560 O.2   110  TYR110     -0.2718
     56  CB        18.4490   17.4330   37.8290 C.3   110  TYR110      0.0548
     57  CG        19.7420   18.0920   37.4250 C.ar  110  TYR110     -0.0200
     58  CD1       20.9410   17.7630   38.0510 C.ar  110  TYR110     -0.0009
     59  CD2       19.7530   19.1070   36.4790 C.ar  110  TYR110     -0.0009
     60  CE1       22.1260   18.4060   37.7180 C.ar  110  TYR110      0.0417
     61  CE2       20.9290   19.7580   36.1370 C.ar  110  TYR110      0.0417
     62  CZ        22.1170   19.4100   36.7600 C.ar  110  TYR110      0.1957
     63  OH        23.2950   20.0490   36.4260 O.3   110  TYR110     -0.2866
     64  N         16.9670   19.3270   40.3670 N.am  111  ILE111     -0.1966
     65  CA        15.8500   20.1880   40.7300 C.3   111  ILE111      0.1727
     66  C         15.2220   19.8620   42.0740 C.2   111  ILE111      0.2616
     67  O         14.6800   18.7780   42.2840 O.2   111  ILE111     -0.2715
     68  CB        14.8170   20.3290   39.6040 C.3   111  ILE111      0.0290
     69  CG1       15.4710   20.9630   38.3750 C.3   111  ILE111      0.0022
     70  CG2       13.6250   21.1410   40.0650 C.3   111  ILE111      0.0023
     71  CD1       14.5010   21.2230   37.2290 C.3   111  ILE111      0.0001
     72  N         15.3050   20.8410   42.9660 N.am  112  PHE112     -0.1974
     73  CA        14.7560   20.7570   44.3060 C.3   112  PHE112      0.1639
     74  C         13.7240   21.8640   44.3250 C.2   112  PHE112      0.2290
     75  O         13.9560   22.9150   43.7290 O.2   112  PHE112     -0.2864
     76  CB        15.8170   21.1030   45.3640 C.3   112  PHE112      0.0560
     77  CG        17.1280   20.3800   45.2050 C.ar  112  PHE112     -0.0200
     78  CD1       17.6190   20.0410   43.9530 C.ar  112  PHE112     -0.0042
     79  CD2       17.9160   20.1250   46.3140 C.ar  112  PHE112     -0.0042
     80  CE1       18.8390   19.4180   43.8070 C.ar  112  PHE112     -0.0003
     81  CE2       19.1370   19.4840   46.1810 C.ar  112  PHE112     -0.0003
     82  CZ        19.5930   19.1190   44.9270 C.ar  112  PHE112     -0.0000
     83  N         11.7400   24.1000   43.3350 N.3   114  LYS114     -0.1245
     84  CA        12.0190   25.3510   42.6480 C.3   114  LYS114      0.1561
     85  C         11.2520   26.5260   43.2340 C.2   114  LYS114      0.2260
     86  O         11.7440   27.6530   43.2380 O.2   114  LYS114     -0.2867
     87  CB        11.7370   25.2240   41.1450 C.3   114  LYS114      0.0271
     88  CG        10.4930   24.4090   40.8050 C.3   114  LYS114      0.0035
     89  CD        10.8470   23.1350   40.0450 C.3   114  LYS114      0.0206
     90  CE        10.5220   23.2520   38.5620 C.3   114  LYS114      0.1093
     91  NZ         9.0570   23.3110   38.3070 N.3   114  LYS114     -0.1314
     92  N         13.2410   28.9220   45.3260 N.3   117  ILE117     -0.1231
     93  CA        14.0780   29.8720   44.5930 C.3   117  ILE117      0.1692
     94  C         13.2150   30.7310   43.6890 C.2   117  ILE117      0.2591
     95  O         13.5980   31.8330   43.3000 O.2   117  ILE117     -0.2718
     96  CB        15.1960   29.1680   43.8020 C.3   117  ILE117      0.0266
     97  CG1       14.6090   28.4100   42.6150 C.3   117  ILE117      0.0019
     98  CG2       15.9730   28.2210   44.7070 C.3   117  ILE117      0.0020
     99  CD1       14.5310   26.9260   42.8510 C.3   117  ILE117      0.0001
    100  N         12.0370   30.2170   43.3560 N.am  118  LEU118     -0.1980
    101  CA        11.1000   30.9640   42.5350 C.3   118  LEU118      0.1596
    102  C         10.6520   32.1660   43.3600 C.2   118  LEU118      0.2287
    103  O         10.6030   33.2960   42.8720 O.2   118  LEU118     -0.2864
    104  CB         9.8980   30.0890   42.1620 C.3   118  LEU118      0.0297
    105  CG         8.9250   30.6410   41.1120 C.3   118  LEU118      0.0022
    106  CD1        8.0080   31.6670   41.7390 C.3   118  LEU118      0.0001
    107  CD2        9.6770   31.2400   39.9320 C.3   118  LEU118      0.0001
    108  N         13.3820   34.5080   43.8840 N.3   121  PHE121     -0.1241
    109  CA        13.5650   35.2310   42.6330 C.3   121  PHE121      0.1605
    110  C         12.6120   36.4110   42.5710 C.2   121  PHE121      0.2264
    111  O         12.9850   37.5050   42.1560 O.2   121  PHE121     -0.2867
    112  CB        13.3040   34.3140   41.4400 C.3   121  PHE121      0.0534
    113  CG        13.2540   35.0390   40.1250 C.ar  121  PHE121     -0.0203
    114  CD1       12.1190   35.7310   39.7400 C.ar  121  PHE121     -0.0042
    115  CD2       14.3440   35.0290   39.2730 C.ar  121  PHE121     -0.0042
    116  CE1       12.0780   36.4000   38.5420 C.ar  121  PHE121     -0.0003
    117  CE2       14.3040   35.6870   38.0630 C.ar  121  PHE121     -0.0003
    118  CZ        13.1710   36.3740   37.6980 C.ar  121  PHE121     -0.0000
@<TRIPOS>BOND
     1    61    59   ar
     2    61    62   ar
     3    63    62    1
     4    59    57   ar
     5    62    60   ar
     6    71    69    1
     7    57    56    1
     8    57    58   ar
     9   118   117   ar
    10   118   116   ar
    11    60    58   ar
    12    56    53    1
    13   117   115   ar
    14    91    90    1
    15    69    68    1
    16   116   114   ar
    17    90    89    1
    18    16    14   ar
    19    55    54    2
    20   115   113   ar
    21    53    54    1
    22    53    52    1
    23    14    13    1
    24    14    15   ar
    25    54    64   am
    26    28    26    1
    27    13    10    1
    28    68    70    1
    29    68    65    1
    30    27    26    1
    31   114   113   ar
    32   107   105    1
    33    89    88    1
    34     7     6    2
    35   113   112    1
    36    64    65    1
    37    12    11    2
    38    26    23    1
    39    65    66    1
    40    10    11    1
    41    10     9    1
    42    88    87    1
    43     6     8   am
    44     6     5    1
    45   105   106    1
    46   105   104    1
    47    11    17   am
    48    87    84    1
    49   112   109    1
    50    23    22    1
    51    23    24    1
    52     2     5    1
    53     2     1    1
    54     2     3    1
    55    66    67    2
    56    66    72   am
    57   111   110    2
    58   104   101    1
    59     4     3    2
    60    17    18    1
    61   101   100    1
    62   101   102    1
    63   110   109    1
    64    97    99    1
    65    97    96    1
    66   109   108    1
    67    84    85    1
    68    84    83    1
    69    25    24    2
    70    24    29   am
    71    18    19    1
    72    18    21    1
    73   103   102    2
    74    72    73    1
    75    85    86    2
    76    95    94    2
    77    20    19    2
    78   100    94   am
    79    94    93    1
    80    75    74    2
    81    96    93    1
    82    96    98    1
    83    80    78   ar
    84    80    82   ar
    85    29    30    1
    86    78    77   ar
    87    73    74    1
    88    73    76    1
    89    93    92    1
    90    82    81   ar
    91    30    31    1
    92    30    33    1
    93    77    76    1
    94    77    79   ar
    95    31    32    2
    96    51    50    1
    97    33    34    1
    98    81    79   ar
    99    50    49   ar
   100    50    48   ar
   101    49    47   ar
   102    34    35   ar
   103    34    36   ar
   104    48    46   ar
   105    35    37   ar
   106    47    45   ar
   107    36    38   ar
   108    46    45   ar
   109    45    44    1
   110    37    39   ar
   111    38    39   ar
   112    44    41    1
   113    41    42    1
   114    41    40    1
   115    43    42    2
