@<TRIPOS>MOLECULE
tmp/2q7rE00.pdb
 84 81 0 0 0
SMALL
GASTEIGER

@<TRIPOS>ATOM
      1  N         26.1610   30.3030   56.1860 N.3    16  LEU16      -0.1245
      2  CA        27.1500   29.5220   56.9190 C.3    16  LEU16       0.1561
      3  C         26.5920   28.1290   57.1550 C.2    16  LEU16       0.2260
      4  O         27.3310   27.1500   57.2240 O.2    16  LEU16      -0.2867
      5  CB        27.4380   30.1790   58.2690 C.3    16  LEU16       0.0270
      6  CG        28.5460   31.2320   58.3220 C.3    16  LEU16       0.0019
      7  CD1       29.9100   30.5870   58.1620 C.3    16  LEU16       0.0001
      8  CD2       28.3140   32.2970   57.2700 C.3    16  LEU16       0.0001
      9  N         26.7930   26.1810   54.1300 N.3    19  VAL19      -0.1231
     10  CA        28.2200   25.9290   53.9600 C.3    19  VAL19       0.1692
     11  C         28.6380   24.7030   54.7590 C.2    19  VAL19       0.2592
     12  O         29.4960   23.9320   54.3280 O.2    19  VAL19      -0.2718
     13  CB        29.0690   27.1410   54.3660 C.3    19  VAL19       0.0266
     14  CG1       29.8780   26.8140   55.6060 C.3    19  VAL19       0.0020
     15  CG2       29.9990   27.5210   53.2390 C.3    19  VAL19       0.0020
     16  N         28.0440   24.5490   55.9390 N.am   20  VAL20      -0.1966
     17  CA        28.3400   23.4140   56.8050 C.3    20  VAL20       0.1727
     18  C         27.6840   22.1640   56.2400 C.2    20  VAL20       0.2616
     19  O         28.3140   21.1150   56.1310 O.2    20  VAL20      -0.2715
     20  CB        27.8600   23.6610   58.2350 C.3    20  VAL20       0.0290
     21  CG1       27.0450   22.4740   58.7190 C.3    20  VAL20       0.0023
     22  CG2       29.0400   23.9000   59.1390 C.3    20  VAL20       0.0023
     23  N         26.4050   22.2820   55.9010 N.am   21  GLN21      -0.1963
     24  CA        25.6870   21.1670   55.3120 C.3    21  GLN21       0.1733
     25  C         26.4500   20.7900   54.0560 C.2    21  GLN21       0.2616
     26  O         26.7310   19.6190   53.8200 O.2    21  GLN21      -0.2715
     27  CB        24.2560   21.5680   54.9540 C.3    21  GLN21       0.0408
     28  CG        24.0250   21.8540   53.4780 C.3    21  GLN21       0.0908
     29  CD        22.5900   21.6090   53.0400 C.2    21  GLN21       0.2608
     30  OE1       22.1070   22.2230   52.0940 O.2    21  GLN21      -0.2717
     31  NE2       21.9070   20.6950   53.7210 N.am   21  GLN21      -0.0878
     32  N         26.8150   21.8030   53.2760 N.am   22  ASN22      -0.1958
     33  CA        27.5610   21.5980   52.0380 C.3    22  ASN22       0.1819
     34  C         28.7310   20.6490   52.2350 C.2    22  ASN22       0.2622
     35  O         29.0540   19.8610   51.3520 O.2    22  ASN22      -0.2715
     36  CB        28.0650   22.9280   51.4890 C.3    22  ASN22       0.1195
     37  CG        27.1950   23.4610   50.3830 C.2    22  ASN22       0.2630
     38  OD1       25.9760   23.3220   50.4160 O.2    22  ASN22      -0.2716
     39  ND2       27.8140   24.0850   49.3950 N.am   22  ASN22      -0.0877
     40  N         29.3570   20.7220   53.4050 N.am   23  GLY23      -0.1940
     41  CA        30.4800   19.8660   53.7350 C.3    23  GLY23       0.2014
     42  C         30.0100   18.4550   54.0150 C.2    23  GLY23       0.2638
     43  O         30.6200   17.4800   53.5790 O.2    23  GLY23      -0.2714
     44  N         28.9120   18.3460   54.7500 N.am   24  PHE24      -0.1973
     45  CA        28.3500   17.0440   55.0710 C.3    24  PHE24       0.1639
     46  C         28.1150   16.2670   53.7770 C.2    24  PHE24       0.2290
     47  O         28.5520   15.1250   53.6460 O.2    24  PHE24      -0.2864
     48  CB        27.0590   17.2200   55.8720 C.3    24  PHE24       0.0560
     49  CG        26.1550   16.0250   55.8490 C.ar   24  PHE24      -0.0200
     50  CD1       26.6700   14.7430   55.8430 C.ar   24  PHE24      -0.0042
     51  CD2       24.7830   16.1870   55.8750 C.ar   24  PHE24      -0.0042
     52  CE1       25.8330   13.6490   55.8220 C.ar   24  PHE24      -0.0003
     53  CE2       23.9410   15.1010   55.8630 C.ar   24  PHE24      -0.0003
     54  CZ        24.4650   13.8280   55.8340 C.ar   24  PHE24      -0.0000
     55  N         29.4840   16.6250   50.7940 N.3    26  ALA26      -0.1231
     56  CA        30.7870   16.2550   50.2560 C.3    26  ALA26       0.1694
     57  C         31.5050   15.2730   51.1750 C.2    26  ALA26       0.2592
     58  O         32.5250   14.7010   50.8090 O.2    26  ALA26      -0.2718
     59  CB        31.6380   17.4980   50.0210 C.3    26  ALA26       0.0304
     60  N         30.9600   15.0730   52.3670 N.am   27  HIS27      -0.1976
     61  CA        31.5610   14.1360   53.2940 C.3    27  HIS27       0.1656
     62  C         30.9990   12.7510   53.0390 C.2    27  HIS27       0.2291
     63  O         31.7410   11.7780   52.8860 O.2    27  HIS27      -0.2864
     64  CB        31.2780   14.5420   54.7330 C.3    27  HIS27       0.0771
     65  CG        31.3790   13.4110   55.7020 C.ar   27  HIS27       0.0820
     66  ND1       32.5780   12.8200   56.0310 N.ar   27  HIS27      -0.2267
     67  CD2       30.4260   12.7380   56.3890 C.ar   27  HIS27       0.1154
     68  CE1       32.3630   11.8470   56.8970 C.ar   27  HIS27       0.1986
     69  NE2       31.0650   11.7760   57.1290 N.ar   27  HIS27      -0.2212
     70  N         24.9590   14.4430   45.6100 N.3    56  ASN56      -0.1240
     71  CA        25.7810   15.5800   45.9940 C.3    56  ASN56       0.1653
     72  C         26.1470   16.4770   44.8090 C.2    56  ASN56       0.2266
     73  O         26.0620   17.7030   44.9080 O.2    56  ASN56      -0.2867
     74  CB        27.0390   15.1010   46.7100 C.3    56  ASN56       0.1155
     75  CG        28.1730   16.0740   46.5740 C.2    56  ASN56       0.2627
     76  OD1       28.9950   15.9570   45.6660 O.2    56  ASN56      -0.2716
     77  ND2       28.1790   17.0960   47.4230 N.am   56  ASN56      -0.0877
     78  N         25.3780   20.5180   44.2220 N.3    60  VAL60      -0.1245
     79  CA        26.5090   21.3740   43.9480 C.3    60  VAL60       0.1561
     80  C         26.1450   22.3040   42.8100 C.2    60  VAL60       0.2260
     81  O         26.5410   23.4670   42.7970 O.2    60  VAL60      -0.2867
     82  CB        27.7580   20.5680   43.6440 C.3    60  VAL60       0.0252
     83  CG1       28.6560   21.3260   42.6730 C.3    60  VAL60       0.0019
     84  CG2       28.4900   20.2680   44.9380 C.3    60  VAL60       0.0019
@<TRIPOS>BOND
     1    83    82    1
     2    81    80    2
     3    80    79    1
     4    82    79    1
     5    82    84    1
     6    79    78    1
     7    72    73    2
     8    72    71    1
     9    70    71    1
    10    76    75    2
    11    71    74    1
    12    75    74    1
    13    75    77   am
    14    39    37   am
    15    59    56    1
    16    56    55    1
    17    56    57    1
    18    37    38    2
    19    37    36    1
    20    58    57    2
    21    57    60   am
    22    35    34    2
    23    36    33    1
    24    33    34    1
    25    33    32    1
    26    30    29    2
    27    34    40   am
    28    60    61    1
    29    63    62    2
    30    62    61    1
    31    29    28    1
    32    29    31   am
    33    15    13    1
    34    32    25   am
    35    61    64    1
    36    40    41    1
    37    28    27    1
    38    43    42    2
    39    47    46    2
    40    41    42    1
    41    46    45    1
    42    26    25    2
    43    10     9    1
    44    10    13    1
    45    10    11    1
    46    42    44   am
    47    25    24    1
    48    12    11    2
    49    13    14    1
    50    64    65    1
    51    44    45    1
    52    11    16   am
    53    27    24    1
    54    45    48    1
    55    24    23    1
    56    65    66   ar
    57    65    67   ar
    58    52    54   ar
    59    52    50   ar
    60    54    53   ar
    61    50    49   ar
    62    49    48    1
    63    49    51   ar
    64    53    51   ar
    65    23    18   am
    66    16    17    1
    67    66    68   ar
    68    19    18    2
    69     1     2    1
    70    18    17    1
    71    67    69   ar
    72    17    20    1
    73    68    69   ar
    74     2     3    1
    75     2     5    1
    76     3     4    2
    77     8     6    1
    78     7     6    1
    79    20    21    1
    80    20    22    1
    81     5     6    1
