@<TRIPOS>MOLECULE
tmp/2q7tB00.pdb
 103 99 0 0 0
SMALL
GASTEIGER

@<TRIPOS>ATOM
      1  N         -4.9220   42.1490   33.3140 N.3     6  GLN6       -0.1245
      2  CA        -5.5050   43.4360   32.9550 C.3     6  GLN6        0.1566
      3  C         -6.3880   43.8660   34.1180 C.2     6  GLN6        0.2260
      4  O         -7.0180   43.0280   34.7570 O.2     6  GLN6       -0.2867
      5  CB        -6.3870   43.3130   31.7100 C.3     6  GLN6        0.0367
      6  CG        -5.8980   42.3460   30.6510 C.3     6  GLN6        0.0905
      7  CD        -4.7430   42.8870   29.8500 C.2     6  GLN6        0.2608
      8  OE1       -4.8210   43.9800   29.2860 O.2     6  GLN6       -0.2717
      9  NE2       -3.6600   42.1200   29.7830 N.am    6  GLN6       -0.0878
     10  N         -9.7790   46.0710   46.1000 N.3    16  PHE16      -0.1227
     11  CA        -9.0520   44.8170   46.2330 C.3    16  PHE16       0.1736
     12  C         -7.5950   45.0250   46.6520 C.2    16  PHE16       0.2595
     13  O         -7.0860   44.3440   47.5460 O.2    16  PHE16      -0.2718
     14  CB        -9.0780   44.0460   44.9140 C.3    16  PHE16       0.0547
     15  CG        -8.0130   42.9950   44.8200 C.ar   16  PHE16      -0.0202
     16  CD1       -8.0570   41.8700   45.6340 C.ar   16  PHE16      -0.0042
     17  CD2       -6.9250   43.1680   43.9680 C.ar   16  PHE16      -0.0042
     18  CE1       -7.0320   40.9300   45.6090 C.ar   16  PHE16      -0.0003
     19  CE2       -5.8960   42.2410   43.9320 C.ar   16  PHE16      -0.0003
     20  CZ        -5.9460   41.1160   44.7570 C.ar   16  PHE16      -0.0000
     21  N         -6.9270   45.9630   45.9940 N.am   17  TYR17      -0.1976
     22  CA        -5.5260   46.2380   46.2850 C.3    17  TYR17       0.1639
     23  C         -5.2730   46.8330   47.6790 C.2    17  TYR17       0.2290
     24  O         -4.1820   46.6740   48.2240 O.2    17  TYR17      -0.2864
     25  CB        -4.9300   47.1520   45.1980 C.3    17  TYR17       0.0560
     26  CG        -4.9420   46.5410   43.8020 C.ar   17  TYR17      -0.0198
     27  CD1       -5.8210   47.0030   42.8160 C.ar   17  TYR17      -0.0009
     28  CD2       -4.1020   45.4690   43.4800 C.ar   17  TYR17      -0.0009
     29  CE1       -5.8680   46.4080   41.5490 C.ar   17  TYR17       0.0417
     30  CE2       -4.1410   44.8680   42.2180 C.ar   17  TYR17       0.0417
     31  CZ        -5.0290   45.3400   41.2590 C.ar   17  TYR17       0.1957
     32  OH        -5.0950   44.7200   40.0270 O.3    17  TYR17      -0.2866
     33  N         -1.7420   45.0620   35.6380 N.3    74  ASP74      -0.1239
     34  CA        -1.2120   44.5910   36.9040 C.3    74  ASP74       0.1674
     35  C         -0.0530   43.6150   36.6610 C.2    74  ASP74       0.2266
     36  O         -0.2350   42.5270   36.1060 O.2    74  ASP74      -0.2867
     37  CB        -2.3360   43.9130   37.6970 C.3    74  ASP74       0.1410
     38  CG        -1.8550   43.3090   38.9970 C.2    74  ASP74       0.3668
     39  OD1       -0.6730   43.5130   39.3370 O.co2  74  ASP74      -0.2456
     40  OD2       -2.6600   42.6300   39.6790 O.co2  74  ASP74      -0.2456
     41  N          1.3470   42.4140   49.0000 N.3   139  HIS139     -0.1241
     42  CA         0.3890   41.4570   49.5500 C.3   139  HIS139      0.1621
     43  C          1.2210   40.2730   50.0520 C.2   139  HIS139      0.2264
     44  O          2.4120   40.1970   49.7570 O.2   139  HIS139     -0.2867
     45  CB        -0.6250   41.0160   48.4860 C.3   139  HIS139      0.0745
     46  CG        -1.6680   42.0490   48.1830 C.ar  139  HIS139      0.0817
     47  ND1       -2.7290   41.8120   47.3360 N.ar  139  HIS139     -0.2268
     48  CD2       -1.8030   43.3290   48.6040 C.ar  139  HIS139      0.1154
     49  CE1       -3.4720   42.9010   47.2470 C.ar  139  HIS139      0.1986
     50  NE2       -2.9310   43.8370   48.0070 N.ar  139  HIS139     -0.2212
     51  N         -0.3150   36.6600   50.6660 N.3   141  THR141     -0.1218
     52  CA        -0.9090   35.3370   50.5910 C.3   141  THR141      0.1862
     53  C         -1.0700   34.8070   49.1810 C.2   141  THR141      0.2287
     54  O         -1.5060   35.5210   48.2770 O.2   141  THR141     -0.2866
     55  CB        -2.2780   35.3290   51.3030 C.3   141  THR141      0.1770
     56  OG1       -2.0920   35.6910   52.6800 O.3   141  THR141     -0.2211
     57  CG2       -2.9240   33.9540   51.2210 C.3   141  THR141      0.0375
     58  N         -2.5210   32.0070   46.2480 N.3   143  ARG143     -0.1245
     59  CA        -3.8560   31.5710   45.8580 C.3   143  ARG143      0.1563
     60  C         -4.3460   30.4380   46.7610 C.2   143  ARG143      0.2260
     61  O         -5.5430   30.3150   47.0170 O.2   143  ARG143     -0.2867
     62  CB        -3.8530   31.1050   44.3950 C.3   143  ARG143      0.0307
     63  CG        -2.5480   30.4490   43.9400 C.3   143  ARG143      0.0489
     64  CD        -1.4470   31.4950   43.7350 C.3   143  ARG143      0.2205
     65  NE        -0.2070   30.9060   43.2370 N.pl3 143  ARG143     -0.0865
     66  CZ         0.8500   31.6100   42.8430 C.cat 143  ARG143      0.5346
     67  NH1        0.8160   32.9350   42.8890 N.pl3 143  ARG143      0.1354
     68  NH2        1.9360   30.9890   42.3960 N.pl3 143  ARG143      0.1354
     69  N          4.4310   39.2850   47.5920 N.3   150  HIS150     -0.1241
     70  CA         4.3530   39.7290   46.2130 C.3   150  HIS150      0.1621
     71  C          3.8820   41.1650   46.0960 C.2   150  HIS150      0.2264
     72  O          3.2100   41.6940   46.9810 O.2   150  HIS150     -0.2867
     73  CB         3.4600   38.7960   45.3800 C.3   150  HIS150      0.0745
     74  CG         2.0610   38.6540   45.8950 C.ar  150  HIS150      0.0817
     75  ND1        1.7640   38.0180   47.0810 N.ar  150  HIS150     -0.2268
     76  CD2        0.8760   39.0470   45.3720 C.ar  150  HIS150      0.1154
     77  CE1        0.4550   38.0240   47.2660 C.ar  150  HIS150      0.1986
     78  NE2       -0.1060   38.6430   46.2430 N.ar  150  HIS150     -0.2212
     79  N          1.9760   44.0580   43.6190 N.3   152  HIS152     -0.1241
     80  CA         1.1280   44.3290   42.4760 C.3   152  HIS152      0.1621
     81  C          1.5180   45.7100   41.9880 C.2   152  HIS152      0.2264
     82  O          1.2360   46.7080   42.6420 O.2   152  HIS152     -0.2867
     83  CB        -0.3450   44.3300   42.8790 C.3   152  HIS152      0.0745
     84  CG        -0.8920   42.9690   43.1640 C.ar  152  HIS152      0.0817
     85  ND1       -1.2050   42.0700   42.1680 N.ar  152  HIS152     -0.2268
     86  CD2       -1.1630   42.3450   44.3350 C.ar  152  HIS152      0.1154
     87  CE1       -1.6450   40.9500   42.7110 C.ar  152  HIS152      0.1986
     88  NE2       -1.6290   41.0900   44.0240 N.ar  152  HIS152     -0.2212
     89  N        -13.8130   32.7450   42.4110 N.3   229  SER229     -0.1202
     90  CA       -14.6730   33.7990   42.9290 C.3   229  SER229      0.2020
     91  C        -13.8290   34.9330   43.5160 C.2   229  SER229      0.2618
     92  O        -14.1150   36.1130   43.2830 O.2   229  SER229     -0.2717
     93  CB       -15.6190   33.2270   43.9870 C.3   229  SER229      0.2103
     94  OG       -16.5620   34.2000   44.3980 O.3   229  SER229     -0.2182
     95  N        -12.8180   34.5730   44.3050 N.am  230  LYS230     -0.1979
     96  CA       -11.8970   35.5460   44.9070 C.3   230  LYS230      0.1596
     97  C        -12.2380   36.0970   46.2940 C.2   230  LYS230      0.2287
     98  O        -12.9920   37.0520   46.4350 O.2   230  LYS230     -0.2864
     99  CB       -11.6620   36.7130   43.9380 C.3   230  LYS230      0.0298
    100  CG       -10.5380   37.6420   44.3390 C.3   230  LYS230      0.0038
    101  CD        -9.2770   36.8710   44.6470 C.3   230  LYS230      0.0206
    102  CE        -8.4080   37.6740   45.5670 C.3   230  LYS230      0.1093
    103  NZ        -7.2090   36.9190   46.0210 N.3   230  LYS230     -0.1314
@<TRIPOS>BOND
     1     8     7    2
     2     9     7   am
     3     7     6    1
     4     6     5    1
     5     5     2    1
     6     2     1    1
     7     2     3    1
     8     3     4    2
     9    33    34    1
    10    36    35    2
    11    35    34    1
    12    34    37    1
    13    37    38    1
    14    38    39   ar
    15    38    40   ar
    16    32    31    1
    17    31    29   ar
    18    31    30   ar
    19    29    27   ar
    20    81    80    1
    21    81    82    2
    22    85    87   ar
    23    85    84   ar
    24    30    28   ar
    25    68    66    1
    26    89    90    1
    27    80    83    1
    28    80    79    1
    29    87    88   ar
    30    27    26   ar
    31    66    67    1
    32    66    65    2
    33    83    84    1
    34    90    91    1
    35    90    93    1
    36    84    86   ar
    37    65    64    1
    38    92    91    2
    39    28    26   ar
    40    91    95   am
    41    64    63    1
    42    26    25    1
    43    19    17   ar
    44    19    20   ar
    45    99   100    1
    46    99    96    1
    47    63    62    1
    48    17    15   ar
    49    93    94    1
    50    88    86   ar
    51    95    96    1
    52   100   101    1
    53    62    59    1
    54   101   102    1
    55    20    18   ar
    56    15    14    1
    57    15    16   ar
    58    96    97    1
    59    14    11    1
    60    25    22    1
    61    76    74   ar
    62    76    78   ar
    63    73    74    1
    64    73    70    1
    65   102   103    1
    66    18    16   ar
    67    59    58    1
    68    59    60    1
    69    74    75   ar
    70    21    22    1
    71    21    12   am
    72    71    70    1
    73    71    72    2
    74    10    11    1
    75    70    69    1
    76    11    12    1
    77    78    77   ar
    78    22    23    1
    79    97    98    2
    80    12    13    2
    81    60    61    2
    82    75    77   ar
    83    49    47   ar
    84    49    50   ar
    85    47    46   ar
    86    23    24    2
    87    50    48   ar
    88    46    45    1
    89    46    48   ar
    90    54    53    2
    91    45    42    1
    92    41    42    1
    93    53    52    1
    94    42    43    1
    95    44    43    2
    96    52    51    1
    97    52    55    1
    98    57    55    1
    99    55    56    1
