@<TRIPOS>MOLECULE
tmp/2q7uA00.pdb
 134 129 0 0 0
SMALL
GASTEIGER

@<TRIPOS>ATOM
      1  N          4.5110    8.4450    5.4170 N.3     3  SER3       -0.1217
      2  CA         4.2800    9.7670    4.8330 C.3     3  SER3        0.1889
      3  C          5.5590   10.3210    4.2450 C.2     3  SER3        0.2288
      4  O          6.6400   10.0890    4.7840 O.2     3  SER3       -0.2866
      5  CB         3.7810   10.7480    5.8910 C.3     3  SER3        0.2089
      6  OG         2.5380   10.3380    6.4210 O.3     3  SER3       -0.2183
      7  N          7.4660   13.8890    3.0120 N.3     5  ALA5       -0.1231
      8  CA         7.4820   15.3440    2.9760 C.3     5  ALA5        0.1694
      9  C          8.9110   15.8700    2.9330 C.2     5  ALA5        0.2592
     10  O          9.8510   15.1770    3.3160 O.2     5  ALA5       -0.2718
     11  CB         6.7670   15.8970    4.1780 C.3     5  ALA5        0.0304
     12  N          9.0700   17.1030    2.4630 N.am    6  GLN6       -0.1966
     13  CA        10.3830   17.7180    2.3630 C.3     6  GLN6        0.1733
     14  C         10.6810   18.5380    3.6120 C.2     6  GLN6        0.2616
     15  O          9.8420   19.3220    4.0600 O.2     6  GLN6       -0.2715
     16  CB        10.4460   18.6240    1.1400 C.3     6  GLN6        0.0408
     17  CG        11.8640   18.9510    0.7260 C.3     6  GLN6        0.0908
     18  CD        11.9480   20.0750   -0.2820 C.2     6  GLN6        0.2608
     19  OE1       11.7380   21.2460    0.0520 O.2     6  GLN6       -0.2717
     20  NE2       12.2540   19.7250   -1.5290 N.am    6  GLN6       -0.0878
     21  N         11.8740   18.3570    4.1710 N.am    7  VAL7       -0.1963
     22  CA        12.2630   19.1020    5.3590 C.3     7  VAL7        0.1727
     23  C         12.2750   20.6120    5.1230 C.2     7  VAL7        0.2616
     24  O         12.7630   21.0960    4.1030 O.2     7  VAL7       -0.2715
     25  CB        13.6370   18.6560    5.8610 C.3     7  VAL7        0.0290
     26  CG1       14.4330   18.1260    4.7160 C.3     7  VAL7        0.0023
     27  CG2       14.3600   19.8220    6.5280 C.3     7  VAL7        0.0023
     28  N         11.7340   21.3480    6.0870 N.am    8  ARG8       -0.1977
     29  CA        11.6600   22.7980    5.9970 C.3     8  ARG8        0.1597
     30  C         13.0090   23.4870    5.8170 C.2     8  ARG8        0.2287
     31  O         13.2340   24.1530    4.8060 O.2     8  ARG8       -0.2864
     32  CB        10.9450   23.3660    7.2240 C.3     8  ARG8        0.0334
     33  CG         9.4610   23.6140    7.0070 C.3     8  ARG8        0.0492
     34  CD         8.9340   24.6640    7.9910 C.3     8  ARG8        0.2205
     35  NE         9.8900   25.7610    8.1940 N.pl3   8  ARG8       -0.0865
     36  CZ         9.5970   26.9270    8.7700 C.cat   8  ARG8        0.5346
     37  NH1        8.3650   27.1680    9.2020 N.pl3   8  ARG8        0.1354
     38  NH2       10.5440   27.8460    8.9300 N.pl3   8  ARG8        0.1354
     39  N         15.1220   25.2150   11.1590 N.3    12  SER12      -0.1202
     40  CA        13.7400   24.7490   11.2430 C.3    12  SER12       0.2020
     41  C         13.6360   23.2750   11.6530 C.2    12  SER12       0.2618
     42  O         12.9910   22.9400   12.6490 O.2    12  SER12      -0.2717
     43  CB        13.0440   24.9660    9.8920 C.3    12  SER12       0.2103
     44  OG        11.8750   24.1710    9.7710 O.3    12  SER12      -0.2182
     45  N         14.2770   22.4010   10.8830 N.am   13  ALA13      -0.1979
     46  CA        14.2560   20.9720   11.1560 C.3    13  ALA13       0.1597
     47  C         14.9650   20.6410   12.4630 C.2    13  ALA13       0.2287
     48  O         14.4140   19.9590   13.3240 O.2    13  ALA13      -0.2864
     49  CB        14.9120   20.2310   10.0130 C.3    13  ALA13       0.0319
     50  N         13.0230   21.2110   15.5920 N.3    16  PHE16      -0.1227
     51  CA        11.8110   20.4180   15.5160 C.3    16  PHE16       0.1736
     52  C         12.0530   18.9290   15.7830 C.2    16  PHE16       0.2595
     53  O         11.5570   18.3760   16.7610 O.2    16  PHE16      -0.2718
     54  CB        11.1460   20.5540   14.1610 C.3    16  PHE16       0.0547
     55  CG        10.1400   19.4980   13.9180 C.ar   16  PHE16      -0.0202
     56  CD1        9.0030   19.4320   14.7010 C.ar   16  PHE16      -0.0042
     57  CD2       10.3930   18.4820   13.0180 C.ar   16  PHE16      -0.0042
     58  CE1        8.1350   18.3620   14.6050 C.ar   16  PHE16      -0.0003
     59  CE2        9.5310   17.4040   12.9110 C.ar   16  PHE16      -0.0003
     60  CZ         8.4010   17.3430   13.7100 C.ar   16  PHE16      -0.0000
     61  N         12.8120   18.2790   14.9080 N.am   17  TYR17      -0.1976
     62  CA        13.0920   16.8590   15.0600 C.3    17  TYR17       0.1639
     63  C         13.5900   16.4430   16.4330 C.2    17  TYR17       0.2290
     64  O         13.6770   15.2490   16.7100 O.2    17  TYR17      -0.2864
     65  CB        14.1010   16.4050   14.0120 C.3    17  TYR17       0.0560
     66  CG        13.5050   16.2910   12.6420 C.ar   17  TYR17      -0.0198
     67  CD1       13.9300   17.1080   11.6030 C.ar   17  TYR17      -0.0009
     68  CD2       12.4620   15.3950   12.3950 C.ar   17  TYR17      -0.0009
     69  CE1       13.3220   17.0410   10.3440 C.ar   17  TYR17       0.0417
     70  CE2       11.8470   15.3170   11.1460 C.ar   17  TYR17       0.0417
     71  CZ        12.2780   16.1450   10.1240 C.ar   17  TYR17       0.1957
     72  OH        11.6570   16.0940    8.8960 O.3    17  TYR17      -0.2866
     73  N         11.7050   13.7470    4.5610 N.3    81  ASP81      -0.1239
     74  CA        11.2620   13.1410    5.8060 C.3    81  ASP81       0.1674
     75  C         10.3080   11.9900    5.5420 C.2    81  ASP81       0.2266
     76  O          9.2110   12.1720    5.0190 O.2    81  ASP81      -0.2867
     77  CB        10.5790   14.1820    6.6920 C.3    81  ASP81       0.1410
     78  CG        10.0580   13.5940    7.9970 C.2    81  ASP81       0.3668
     79  OD1       10.1020   12.3570    8.1530 O.co2  81  ASP81      -0.2456
     80  OD2        9.5920   14.3660    8.8660 O.co2  81  ASP81      -0.2456
     81  N          8.1620    9.3790    7.3620 N.3    83  THR83      -0.1218
     82  CA         7.6030    9.1060    8.6830 C.3    83  THR83       0.1862
     83  C          6.8810    7.7700    8.7340 C.2    83  THR83       0.2287
     84  O          5.8430    7.6130    8.0930 O.2    83  THR83      -0.2866
     85  CB         6.5820   10.1800    9.0900 C.3    83  THR83       0.1770
     86  OG1        7.0500   11.4810    8.7030 O.3    83  THR83      -0.2211
     87  CG2        6.3640   10.1350   10.5990 C.3    83  THR83       0.0375
     88  N          8.7690   10.0820   17.5870 N.3   144  HIS144     -0.1241
     89  CA         7.8690   11.0300   18.2340 C.3   144  HIS144      0.1621
     90  C          6.6370   10.2630   18.7260 C.2   144  HIS144      0.2264
     91  O          6.3070    9.2030   18.1900 O.2   144  HIS144     -0.2867
     92  CB         7.5000   12.1550   17.2750 C.3   144  HIS144      0.0745
     93  CG         8.6390   13.0790   16.9790 C.ar  144  HIS144      0.0817
     94  ND1        8.6130   13.9890   15.9440 N.ar  144  HIS144     -0.2268
     95  CD2        9.8430   13.2290   17.5830 C.ar  144  HIS144      0.1154
     96  CE1        9.7530   14.6560   15.9210 C.ar  144  HIS144      0.1986
     97  NE2       10.5160   14.2140   16.9060 N.ar  144  HIS144     -0.2212
     98  N          0.4540   12.9990   17.7070 N.3   147  SER147     -0.1202
     99  CA         0.1280   13.2500   16.3020 C.3   147  SER147      0.2020
    100  C         -0.7140   14.5160   16.2170 C.2   147  SER147      0.2618
    101  O         -1.1780   15.0160   17.2430 O.2   147  SER147     -0.2717
    102  CB        -0.6850   12.0910   15.7280 C.3   147  SER147      0.2103
    103  OG        -1.9950   12.0830   16.2700 O.3   147  SER147     -0.2182
    104  N         -0.9200   15.0310   15.0050 N.am  148  ARG148     -0.1979
    105  CA        -1.7340   16.2320   14.8270 C.3   148  ARG148      0.1597
    106  C         -3.1100   15.9880   15.4470 C.2   148  ARG148      0.2287
    107  O         -3.8450   16.9130   15.8000 O.2   148  ARG148     -0.2864
    108  CB        -1.8920   16.5690   13.3380 C.3   148  ARG148      0.0334
    109  CG        -0.6490   17.1350   12.6620 C.3   148  ARG148      0.0492
    110  CD        -1.0140   18.0900   11.5080 C.3   148  ARG148      0.2205
    111  NE        -2.2390   17.6890   10.8140 N.pl3 148  ARG148     -0.0865
    112  CZ        -2.5990   18.1140    9.6040 C.cat 148  ARG148      0.5346
    113  NH1       -1.8240   18.9590    8.9360 N.pl3 148  ARG148      0.1354
    114  NH2       -3.7370   17.6890    9.0640 N.pl3 148  ARG148      0.1354
    115  N          5.6940    7.0190   16.0280 N.3   155  HIS155     -0.1241
    116  CA         6.1210    7.1680   14.6490 C.3   155  HIS155      0.1621
    117  C          7.5490    7.6820   14.5720 C.2   155  HIS155      0.2264
    118  O          7.9640    8.5320   15.3510 O.2   155  HIS155     -0.2867
    119  CB         5.2060    8.1430   13.9130 C.3   155  HIS155      0.0745
    120  CG         5.2820    9.5460   14.4330 C.ar  155  HIS155      0.0817
    121  ND1        4.6360    9.9520   15.5810 N.ar  155  HIS155     -0.2268
    122  CD2        5.9610   10.6280   13.9790 C.ar  155  HIS155      0.1154
    123  CE1        4.9120   11.2230   15.8110 C.ar  155  HIS155      0.1986
    124  NE2        5.7150   11.6560   14.8540 N.ar  155  HIS155     -0.2212
    125  N         10.6900    9.5200   12.3730 N.3   157  HIS157     -0.1241
    126  CA        10.9510   10.4330   11.2730 C.3   157  HIS157      0.1621
    127  C         12.2690   10.0940   10.5800 C.2   157  HIS157      0.2264
    128  O         13.3320   10.4870   11.0310 O.2   157  HIS157     -0.2867
    129  CB        10.9880   11.8690   11.7830 C.3   157  HIS157      0.0745
    130  CG         9.6360   12.4890   11.9170 C.ar  157  HIS157      0.0817
    131  ND1        8.8490   12.7970   10.8260 N.ar  157  HIS157     -0.2268
    132  CD2        8.9160   12.8330   13.0120 C.ar  157  HIS157      0.1154
    133  CE1        7.7030   13.3020   11.2440 C.ar  157  HIS157      0.1986
    134  NE2        7.7170   13.3340   12.5670 N.ar  157  HIS157     -0.2212
@<TRIPOS>BOND
     1    20    18   am
     2    18    19    2
     3    18    17    1
     4    17    16    1
     5    16    13    1
     6    13    12    1
     7    13    14    1
     8    12     9   am
     9     9     8    1
    10     9    10    2
    11     8     7    1
    12     8    11    1
    13    14    15    2
    14    14    21   am
    15    24    23    2
    16    21    22    1
    17     3     4    2
    18     3     2    1
    19    73    74    1
    20    26    25    1
    21    31    30    2
    22     2     1    1
    23     2     5    1
    24    76    75    2
    25    23    22    1
    26    23    28   am
    27    22    25    1
    28    75    74    1
    29    74    77    1
    30    30    29    1
    31    25    27    1
    32     5     6    1
    33    29    28    1
    34    29    32    1
    35    77    78    1
    36    33    32    1
    37    33    34    1
    38    81    82    1
    39    34    35    1
    40    78    79   ar
    41    78    80   ar
    42    84    83    2
    43    35    36    2
    44    82    83    1
    45    82    85    1
    46    86    85    1
    47    36    38    1
    48    36    37    1
    49    72    71    1
    50   113   112    1
    51   114   112    1
    52    85    87    1
    53   112   111    2
    54    44    43    1
    55    43    40    1
    56    49    46    1
    57    71    69   ar
    58    71    70   ar
    59    69    67   ar
    60   127   128    2
    61   127   126    1
    62   111   110    1
    63   131   133   ar
    64   131   130   ar
    65    45    46    1
    66    45    41   am
    67    70    68   ar
    68    46    47    1
    69    39    40    1
    70    40    41    1
    71   133   134   ar
    72   126   129    1
    73   126   125    1
    74   110   109    1
    75    67    66   ar
    76    41    42    2
    77   129   130    1
    78   130   132   ar
    79    68    66   ar
    80    47    48    2
    81   134   132   ar
    82    66    65    1
    83   109   108    1
    84    59    57   ar
    85    59    60   ar
    86    57    55   ar
    87   108   105    1
    88    60    58   ar
    89   119   120    1
    90   119   116    1
    91    55    54    1
    92    55    56   ar
    93   122   120   ar
    94   122   124   ar
    95    65    62    1
    96    54    51    1
    97   120   121   ar
    98   117   116    1
    99   117   118    2
   100    58    56   ar
   101   116   115    1
   102   105   104    1
   103   105   106    1
   104   124   123   ar
   105    61    62    1
   106    61    52   am
   107   104   100   am
   108    62    63    1
   109   106   107    2
   110    51    50    1
   111    51    52    1
   112   121   123   ar
   113   102   103    1
   114   102    99    1
   115    52    53    2
   116    96    94   ar
   117    96    97   ar
   118    94    93   ar
   119   100    99    1
   120   100   101    2
   121    99    98    1
   122    63    64    2
   123    97    95   ar
   124    93    92    1
   125    93    95   ar
   126    92    89    1
   127    88    89    1
   128    91    90    2
   129    89    90    1
