@<TRIPOS>MOLECULE
tmp/2q7wA00.pdb
 169 161 0 0 0
SMALL
GASTEIGER

@<TRIPOS>ATOM
      1  N         20.0350   20.8860  -15.5090 N.3    15  GLY15      -0.1225
      2  CA        21.1350   20.3410  -14.7500 C.3    15  GLY15       0.1811
      3  C         20.6090   19.1990  -13.9150 C.2    15  GLY15       0.2280
      4  O         21.3620   18.5230  -13.2500 O.2    15  GLY15      -0.2866
      5  N         19.2120   15.5000  -12.9030 N.3    17  GLY17      -0.1210
      6  CA        19.7190   14.2140  -13.2400 C.3    17  GLY17       0.1956
      7  C         18.6770   13.1460  -13.5140 C.2    17  GLY17       0.2611
      8  O         19.0260   12.0520  -13.9630 O.2    17  GLY17      -0.2717
      9  N         17.4030   13.4430  -13.2530 N.am   18  VAL18      -0.1979
     10  CA        16.2860   12.4840  -13.4810 C.3    18  VAL18       0.1595
     11  C         15.4060   12.8410  -14.7000 C.2    18  VAL18       0.2287
     12  O         15.5500   13.9080  -15.2900 O.2    18  VAL18      -0.2864
     13  CB        15.3900   12.2850  -12.1920 C.3    18  VAL18       0.0276
     14  CG1       16.2910   12.0680  -10.9440 C.3    18  VAL18       0.0022
     15  CG2       14.5550   13.4320  -11.9700 C.3    18  VAL18       0.0022
     16  N         21.5710    0.2680   -6.2860 N.3    85  GLY85      -0.1210
     17  CA        21.7490    1.0830   -7.4640 C.3    85  GLY85       0.1956
     18  C         22.8550    0.6370   -8.3990 C.2    85  GLY85       0.2612
     19  O         23.6290   -0.3080   -8.1260 O.2    85  GLY85      -0.2717
     20  N         22.9460    1.3420   -9.5310 N.am   86  GLY86      -0.1942
     21  CA        24.0700    1.1550  -10.4620 C.3    86  GLY86       0.2014
     22  C         25.3760    1.5210   -9.7770 C.2    86  GLY86       0.2639
     23  O         26.4330    0.8780  -10.0020 O.2    86  GLY86      -0.2714
     24  N         25.3420    2.5570   -8.9290 N.am   87  THR87      -0.1950
     25  CA        26.5930    2.9690   -8.2600 C.3    87  THR87       0.1897
     26  C         27.0640    1.8240   -7.3640 C.2    87  THR87       0.2313
     27  O         28.2600    1.4710   -7.3700 O.2    87  THR87      -0.2863
     28  CB        26.4170    4.2110   -7.4080 C.3    87  THR87       0.1794
     29  OG1       25.9380    5.2660   -8.2330 O.3    87  THR87      -0.2208
     30  CG2       27.7590    4.6440   -6.7820 C.3    87  THR87       0.0378
     31  N         28.7290   -0.7810   -9.3910 N.3    90  LEU90      -0.1245
     32  CA        30.0800   -0.4180   -9.8490 C.3    90  LEU90       0.1561
     33  C         31.0520   -0.5780   -8.6870 C.2    90  LEU90       0.2260
     34  O         32.1800   -1.0360   -8.9140 O.2    90  LEU90      -0.2867
     35  CB        30.0930    1.0370  -10.3120 C.3    90  LEU90       0.0270
     36  CG        29.3890    1.2860  -11.6410 C.3    90  LEU90       0.0019
     37  CD1       29.0660    2.7510  -11.8170 C.3    90  LEU90       0.0001
     38  CD2       30.2480    0.7560  -12.8040 C.3    90  LEU90       0.0001
     39  N         30.4640   10.0150  -16.6410 N.3   113  TRP113     -0.1228
     40  CA        29.8310   10.4100  -15.3810 C.3   113  TRP113      0.1722
     41  C         30.9630   10.6630  -14.3690 C.2   113  TRP113      0.2437
     42  O         31.8860    9.8290  -14.2710 O.2   113  TRP113     -0.2733
     43  CB        28.9680    9.2330  -14.9740 C.3   113  TRP113      0.0563
     44  CG        28.1940    9.3230  -13.7580 C.ar  113  TRP113      0.0003
     45  CD1       27.2750   10.3060  -13.4210 C.ar  113  TRP113      0.0946
     46  CD2       28.1440    8.3510  -12.7580 C.ar  113  TRP113      0.0152
     47  NE1       26.7260    9.9890  -12.1950 N.ar  113  TRP113     -0.2442
     48  CE2       27.1920    8.7700  -11.8020 C.ar  113  TRP113      0.0810
     49  CE3       28.8000    7.1370  -12.5880 C.ar  113  TRP113      0.0012
     50  CZ2       26.9350    8.0060  -10.6170 C.ar  113  TRP113      0.0191
     51  CZ3       28.5580    6.4060  -11.4420 C.ar  113  TRP113      0.0001
     52  CH2       27.6210    6.8300  -10.4940 C.ar  113  TRP113      0.0015
     53  N         30.9510   11.8350  -13.6720 N.am  114  PRO114     -0.2729
     54  CA        32.1140   12.1200  -12.8220 C.3   114  PRO114      0.1401
     55  C         32.3180   11.1530  -11.6580 C.2   114  PRO114      0.2269
     56  O         33.4200   11.0360  -11.1130 O.2   114  PRO114     -0.2865
     57  CB        31.8460   13.5420  -12.2870 C.3   114  PRO114      0.0296
     58  CG        30.9170   14.1610  -13.2340 C.3   114  PRO114      0.0237
     59  CD        30.0640   13.0130  -13.8570 C.3   114  PRO114      0.0939
     60  N         32.4090    7.9590  -11.7880 N.3   116  HIS116     -0.1241
     61  CA        33.1710    6.7690  -12.0800 C.3   116  HIS116      0.1621
     62  C         34.5410    6.8250  -11.4030 C.2   116  HIS116      0.2264
     63  O         35.0060    5.8470  -10.8010 O.2   116  HIS116     -0.2867
     64  CB        33.3580    6.6090  -13.5740 C.3   116  HIS116      0.0745
     65  CG        32.1740    6.0040  -14.2690 C.ar  116  HIS116      0.0817
     66  ND1       31.7440    6.4260  -15.5140 N.ar  116  HIS116     -0.2268
     67  CD2       31.3970    4.9420  -13.9360 C.ar  116  HIS116      0.1154
     68  CE1       30.7240    5.6640  -15.8970 C.ar  116  HIS116      0.1986
     69  NE2       30.4760    4.7720  -14.9380 N.ar  116  HIS116     -0.2212
     70  N         29.8360    2.4700  -21.6020 N.3   161  HIS161     -0.1241
     71  CA        28.4160    2.7490  -21.3410 C.3   161  HIS161      0.1621
     72  C         27.5840    1.9530  -22.3060 C.2   161  HIS161      0.2264
     73  O         27.7870    2.0430  -23.5220 O.2   161  HIS161     -0.2867
     74  CB        28.0870    4.2310  -21.5220 C.3   161  HIS161      0.0745
     75  CG        28.8380    5.1510  -20.6030 C.ar  161  HIS161      0.0817
     76  ND1       28.2810    6.3120  -20.1120 N.ar  161  HIS161     -0.2268
     77  CD2       30.1270    5.1350  -20.1800 C.ar  161  HIS161      0.1154
     78  CE1       29.1990    6.9660  -19.4060 C.ar  161  HIS161      0.1986
     79  NE2       30.3370    6.2780  -19.4540 N.ar  161  HIS161     -0.2212
     80  N         26.6300    8.9040  -21.0290 N.3   166  ASN166     -0.1240
     81  CA        26.4750   10.0580  -20.1660 C.3   166  ASN166      0.1653
     82  C         27.8910   10.6660  -20.0940 C.2   166  ASN166      0.2266
     83  O         28.7910   10.0230  -19.5590 O.2   166  ASN166     -0.2867
     84  CB        25.9900    9.6030  -18.7710 C.3   166  ASN166      0.1155
     85  CG        25.8880   10.7270  -17.8060 C.2   166  ASN166      0.2627
     86  OD1       26.2220   11.8930  -18.1220 O.2   166  ASN166     -0.2716
     87  ND2       25.5240   10.3840  -16.5730 N.am  166  ASN166     -0.0877
     88  N         28.5700   -0.4400  -18.0810 N.3   194  ASP194     -0.1239
     89  CA        27.7260    0.3430  -17.1710 C.3   194  ASP194      0.1674
     90  C         26.4490    0.6070  -17.9440 C.2   194  ASP194      0.2266
     91  O         26.4830    1.2950  -18.9710 O.2   194  ASP194     -0.2867
     92  CB        28.4290    1.6490  -16.8640 C.3   194  ASP194      0.1410
     93  CG        27.6460    2.5450  -15.9040 C.2   194  ASP194      0.3668
     94  OD1       26.4110    2.5080  -15.9670 O.co2 194  ASP194     -0.2456
     95  OD2       28.2460    3.3840  -15.2380 O.co2 194  ASP194     -0.2456
     96  N         22.9570    1.9960  -17.2900 N.3   196  ALA196     -0.1231
     97  CA        21.9830    2.7380  -16.4490 C.3   196  ALA196      0.1694
     98  C         20.7480    3.2050  -17.2030 C.2   196  ALA196      0.2592
     99  O         19.8450    3.7800  -16.6010 O.2   196  ALA196     -0.2718
    100  CB        22.6290    3.9150  -15.7650 C.3   196  ALA196      0.0304
    101  N         20.7170    3.0130  -18.5240 N.am  197  TYR197     -0.1976
    102  CA        19.6350    3.6410  -19.3290 C.3   197  TYR197      0.1639
    103  C         18.9980    2.6690  -20.3110 C.2   197  TYR197      0.2290
    104  O         18.5310    3.0910  -21.3840 O.2   197  TYR197     -0.2864
    105  CB        20.1850    4.8840  -20.1110 C.3   197  TYR197      0.0560
    106  CG        20.7110    5.8980  -19.1400 C.ar  197  TYR197     -0.0198
    107  CD1       19.8470    6.8180  -18.5150 C.ar  197  TYR197     -0.0009
    108  CD2       22.0650    5.9980  -18.9060 C.ar  197  TYR197     -0.0009
    109  CE1       20.3190    7.7400  -17.5720 C.ar  197  TYR197      0.0417
    110  CE2       22.5590    6.8930  -17.9630 C.ar  197  TYR197      0.0417
    111  CZ        21.6830    7.7680  -17.2920 C.ar  197  TYR197      0.1957
    112  OH        22.1970    8.6130  -16.3330 O.3   197  TYR197     -0.2866
    113  N         21.4690   -0.4840  -13.7530 N.3   226  SER226     -0.1217
    114  CA        20.6520    0.3140  -12.8510 C.3   226  SER226      0.1889
    115  C         19.2130    0.3480  -13.3620 C.2   226  SER226      0.2288
    116  O         19.0040    0.5020  -14.5760 O.2   226  SER226     -0.2866
    117  CB        21.1480    1.7490  -12.8180 C.3   226  SER226      0.2089
    118  OG        20.2700    2.5470  -12.0240 O.3   226  SER226     -0.2183
    119  N         17.2830    2.6880  -11.7870 N.3   228  SER228     -0.1217
    120  CA        16.8770    3.9840  -11.2920 C.3   228  SER228      0.1889
    121  C         16.0380    4.7380  -12.2990 C.2   228  SER228      0.2288
    122  O         15.0270    5.3470  -11.9440 O.2   228  SER228     -0.2866
    123  CB        18.0870    4.8320  -10.8920 C.3   228  SER228      0.2089
    124  OG        18.7120    4.2920   -9.7220 O.3   228  SER228     -0.2183
    125  N         14.7860    5.7270   -8.6380 N.3   233  TYR233     -0.1241
    126  CA        16.0050    6.3840   -8.1910 C.3   233  TYR233      0.1605
    127  C         16.3090    6.0960   -6.6940 C.2   233  TYR233      0.2264
    128  O         17.3800    5.5260   -6.3710 O.2   233  TYR233     -0.2867
    129  CB        15.8430    7.9080   -8.3850 C.3   233  TYR233      0.0534
    130  CG        15.3660    8.2840   -9.7840 C.ar  233  TYR233     -0.0201
    131  CD1       16.2410    8.4810  -10.8330 C.ar  233  TYR233     -0.0009
    132  CD2       13.9910    8.4760  -10.0140 C.ar  233  TYR233     -0.0009
    133  CE1       15.8140    8.8540  -12.0910 C.ar  233  TYR233      0.0417
    134  CE2       13.5350    8.8380  -11.2610 C.ar  233  TYR233      0.0417
    135  CZ        14.4390    9.0370  -12.2800 C.ar  233  TYR233      0.1957
    136  OH        14.0240    9.3690  -13.5440 O.3   233  TYR233     -0.2866
    137  N         17.2210    2.5120   -4.8160 N.3   236  ARG236     -0.1245
    138  CA        18.5490    1.9490   -4.9770 C.3   236  ARG236      0.1563
    139  C         18.5010    0.5160   -5.4840 C.2   236  ARG236      0.2260
    140  O         18.7870   -0.4550   -4.8070 O.2   236  ARG236     -0.2867
    141  CB        19.3710    2.0510   -3.7010 C.3   236  ARG236      0.0307
    142  CG        19.2950    3.3970   -3.0410 C.3   236  ARG236      0.0489
    143  CD        19.5580    4.6010   -3.9280 C.3   236  ARG236      0.2205
    144  NE        20.8890    4.5460   -4.4890 N.pl3 236  ARG236     -0.0865
    145  CZ        21.1920    4.5810   -5.7930 C.cat 236  ARG236      0.5346
    146  NH1       20.2190    4.6920   -6.7430 N.pl3 236  ARG236      0.1354
    147  NH2       22.4790    4.4890   -6.1640 N.pl3 236  ARG236      0.1354
    148  N         20.6700   12.9480  -22.0400 N.3   330  PHE330     -0.1241
    149  CA        21.7540   13.9550  -22.0360 C.3   330  PHE330      0.1605
    150  C         22.3210   14.2220  -23.4060 C.2   330  PHE330      0.2264
    151  O         22.4190   13.3160  -24.2530 O.2   330  PHE330     -0.2867
    152  CB        22.8780   13.4580  -21.0940 C.3   330  PHE330      0.0534
    153  CG        22.4530   13.3050  -19.6740 C.ar  330  PHE330     -0.0203
    154  CD1       21.8720   14.3710  -18.9760 C.ar  330  PHE330     -0.0042
    155  CD2       22.6190   12.0700  -19.0100 C.ar  330  PHE330     -0.0042
    156  CE1       21.4900   14.2310  -17.6600 C.ar  330  PHE330     -0.0003
    157  CE2       22.2380   11.9380  -17.6660 C.ar  330  PHE330     -0.0003
    158  CZ        21.6680   13.0180  -16.9920 C.ar  330  PHE330     -0.0000
    159  N         26.4480   20.1440  -20.9140 N.3   356  ARG356     -0.1245
    160  CA        25.4900   19.0310  -20.9960 C.3   356  ARG356      0.1563
    161  C         24.1420   19.5230  -20.5470 C.2   356  ARG356      0.2260
    162  O         24.0350   20.2530  -19.5410 O.2   356  ARG356     -0.2867
    163  CB        25.8620   17.9290  -19.9910 C.3   356  ARG356      0.0307
    164  CG        25.0710   16.6430  -20.2230 C.3   356  ARG356      0.0489
    165  CD        25.2580   15.6530  -19.0810 C.3   356  ARG356      0.2205
    166  NE        24.6020   16.0920  -17.8820 N.pl3 356  ARG356     -0.0865
    167  CZ        24.5560   15.3840  -16.7520 C.cat 356  ARG356      0.5346
    168  NH1       25.1440   14.1940  -16.6980 N.pl3 356  ARG356      0.1354
    169  NH2       23.9020   15.8580  -15.6900 N.pl3 356  ARG356      0.1354
@<TRIPOS>BOND
     1   151   150    2
     2    73    72    2
     3   150   149    1
     4    72    71    1
     5   148   149    1
     6   149   152    1
     7    70    71    1
     8    74    71    1
     9    74    75    1
    10   104   103    2
    11   152   153    1
    12    80    81    1
    13   160   159    1
    14   160   161    1
    15   160   163    1
    16    75    77   ar
    17    75    76   ar
    18   161   162    2
    19   103   102    1
    20   164   163    1
    21   164   165    1
    22    77    79   ar
    23    81    82    1
    24    81    84    1
    25    76    78   ar
    26   105   102    1
    27   105   106    1
    28    82    83    2
    29   153   155   ar
    30   153   154   ar
    31    79    78   ar
    32   102   101    1
    33   106   108   ar
    34   106   107   ar
    35   165   166    1
    36   155   157   ar
    37   154   156   ar
    38    91    90    2
    39   108   110   ar
    40    84    85    1
    41   101    98   am
    42   107   109   ar
    43    86    85    2
    44    88    89    1
    45   110   111   ar
    46    90    89    1
    47   166   167    2
    48    85    87   am
    49   157   158   ar
    50   156   158   ar
    51   109   111   ar
    52   111   112    1
    53    96    97    1
    54    98    99    2
    55    98    97    1
    56    89    92    1
    57    92    93    1
    58   167   168    1
    59   167   169    1
    60    39    40    1
    61    97   100    1
    62    94    93   ar
    63    93    95   ar
    64    68    66   ar
    65    68    69   ar
    66    66    65   ar
    67     1     2    1
    68    40    43    1
    69    40    41    1
    70    12    11    2
    71    43    44    1
    72    69    67   ar
    73     2     3    1
    74    11    10    1
    75   116   115    2
    76    41    42    2
    77    41    53   am
    78    65    67   ar
    79    65    64    1
    80     8     7    2
    81     3     4    2
    82    59    53    1
    83    59    58    1
    84    44    45   ar
    85    44    46   ar
    86   113   114    1
    87    53    54    1
    88    64    61    1
    89   136   135    1
    90     7     9   am
    91     7     6    1
    92    10     9    1
    93    10    13    1
    94    45    47   ar
    95   115   114    1
    96     6     5    1
    97    58    57    1
    98   114   117    1
    99    54    57    1
   100    54    55    1
   101   117   118    1
   102    38    36    1
   103    46    49   ar
   104    46    48   ar
   105    49    51   ar
   106   121   122    2
   107   121   120    1
   108   135   133   ar
   109   135   134   ar
   110    47    48   ar
   111    13    15    1
   112    13    14    1
   113   133   131   ar
   114    61    60    1
   115    61    62    1
   116    37    36    1
   117    48    50   ar
   118   119   120    1
   119    55    56    2
   120    36    35    1
   121    51    52   ar
   122    62    63    2
   123   120   123    1
   124   134   132   ar
   125   123   124    1
   126   131   130   ar
   127    50    52   ar
   128    21    22    1
   129    21    20    1
   130    35    32    1
   131   132   130   ar
   132    23    22    2
   133    32    31    1
   134    32    33    1
   135   130   129    1
   136    22    24   am
   137    20    18   am
   138    24    25    1
   139    34    33    2
   140   125   126    1
   141    18    19    2
   142    18    17    1
   143   129   126    1
   144    25    28    1
   145    25    26    1
   146    29    28    1
   147   126   127    1
   148    17    16    1
   149    28    30    1
   150    27    26    2
   151   146   145    1
   152   127   128    2
   153   147   145    1
   154   145   144    2
   155   139   138    1
   156   139   140    2
   157   138   137    1
   158   138   141    1
   159   144   143    1
   160   143   142    1
   161   141   142    1
