@<TRIPOS>MOLECULE
tmp/2q7xA01.pdb
 97 91 0 0 0
SMALL
GASTEIGER

@<TRIPOS>ATOM
      1  N         -8.8200   32.7280   41.4110 N.3   116  GLN116     -0.1245
      2  CA        -9.7990   32.4380   42.4360 C.3   116  GLN116      0.1566
      3  C        -11.1960   32.8880   42.0730 C.2   116  GLN116      0.2260
      4  O        -12.1680   32.2500   42.4620 O.2   116  GLN116     -0.2867
      5  CB        -9.4340   33.0900   43.7420 C.3   116  GLN116      0.0367
      6  CG        -8.3810   32.3630   44.5490 C.3   116  GLN116      0.0905
      7  CD        -8.1710   33.0590   45.8780 C.2   116  GLN116      0.2608
      8  OE1       -8.3670   34.2780   45.9920 O.2   116  GLN116     -0.2717
      9  NE2       -7.7400   32.2990   46.8760 N.am  116  GLN116     -0.0878
     10  N         -5.2100   35.9740   42.8250 N.3   133  ILE133     -0.1231
     11  CA        -4.6090   34.7270   43.3320 C.3   133  ILE133      0.1692
     12  C         -4.9620   33.5720   42.4020 C.2   133  ILE133      0.2592
     13  O         -6.1030   33.3750   42.0470 O.2   133  ILE133     -0.2718
     14  CB        -5.0450   34.4170   44.8120 C.3   133  ILE133      0.0266
     15  CG1       -4.6870   35.5870   45.7400 C.3   133  ILE133      0.0019
     16  CG2       -4.5170   33.0200   45.3230 C.3   133  ILE133      0.0020
     17  CD1       -3.2230   35.9570   45.7690 C.3   133  ILE133      0.0001
     18  N         -3.9440   32.8240   41.9910 N.am  134  ILE134     -0.1966
     19  CA        -4.1110   31.7400   41.0810 C.3   134  ILE134      0.1727
     20  C         -4.5960   30.4990   41.8580 C.2   134  ILE134      0.2616
     21  O         -4.0210   30.1380   42.9040 O.2   134  ILE134     -0.2715
     22  CB        -2.7770   31.3030   40.4210 C.3   134  ILE134      0.0290
     23  CG1       -2.2100   32.4330   39.5800 C.3   134  ILE134      0.0022
     24  CG2       -3.0230   30.0300   39.6040 C.3   134  ILE134      0.0023
     25  CD1       -0.7190   32.2800   39.1200 C.3   134  ILE134      0.0001
     26  N         -5.6800   29.8990   41.3530 N.am  135  ASP135     -0.1971
     27  CA        -6.1960   28.6680   41.9110 C.3   135  ASP135      0.1709
     28  C         -5.5740   27.4160   41.2630 C.2   135  ASP135      0.2293
     29  O         -5.0330   26.5330   41.9400 O.2   135  ASP135     -0.2864
     30  CB        -7.7080   28.6330   41.7410 C.3   135  ASP135      0.1436
     31  CG        -8.2970   27.3750   42.3400 C.2   135  ASP135      0.3671
     32  OD1       -8.4730   27.3780   43.5710 O.co2 135  ASP135     -0.2456
     33  OD2       -8.4950   26.3990   41.5740 O.co2 135  ASP135     -0.2456
     34  N          3.3890   27.8970   39.8190 N.3   171  PHE171     -0.1241
     35  CA         2.3930   27.9600   38.7800 C.3   171  PHE171      0.1605
     36  C          2.9040   28.1310   37.3590 C.2   171  PHE171      0.2264
     37  O          2.2790   27.6570   36.4060 O.2   171  PHE171     -0.2867
     38  CB         1.3530   29.0380   39.1230 C.3   171  PHE171      0.0534
     39  CG         0.4880   28.6450   40.3140 C.ar  171  PHE171     -0.0203
     40  CD1       -0.4610   27.6790   40.1810 C.ar  171  PHE171     -0.0042
     41  CD2        0.6720   29.2100   41.5580 C.ar  171  PHE171     -0.0042
     42  CE1       -1.2620   27.3020   41.2640 C.ar  171  PHE171     -0.0003
     43  CE2       -0.1180   28.8140   42.6490 C.ar  171  PHE171     -0.0003
     44  CZ        -1.0920   27.8740   42.4740 C.ar  171  PHE171     -0.0000
     45  N         -0.6790   34.0460   48.0320 N.3   204  THR204     -0.1218
     46  CA        -1.0240   34.7910   49.2690 C.3   204  THR204      0.1862
     47  C          0.0860   34.7870   50.3190 C.2   204  THR204      0.2287
     48  O          0.9970   33.9710   50.2800 O.2   204  THR204     -0.2866
     49  CB        -2.2590   34.2800   49.9650 C.3   204  THR204      0.1770
     50  OG1       -1.9800   32.9800   50.4870 O.3   204  THR204     -0.2211
     51  CG2       -3.4640   34.2650   49.0190 C.3   204  THR204      0.0375
     52  N          0.6250   31.3970   52.1300 N.3   207  PHE207     -0.1241
     53  CA         0.7470   30.2140   51.2530 C.3   207  PHE207      0.1605
     54  C          1.9940   29.4530   51.7440 C.2   207  PHE207      0.2264
     55  O          3.1190   29.7430   51.3510 O.2   207  PHE207     -0.2867
     56  CB         0.8380   30.6520   49.7970 C.3   207  PHE207      0.0534
     57  CG         0.8460   29.5340   48.7740 C.ar  207  PHE207     -0.0203
     58  CD1       -0.1090   28.5450   48.7820 C.ar  207  PHE207     -0.0042
     59  CD2        1.7570   29.5560   47.7280 C.ar  207  PHE207     -0.0042
     60  CE1       -0.0810   27.5330   47.8560 C.ar  207  PHE207     -0.0003
     61  CE2        1.7560   28.5560   46.7590 C.ar  207  PHE207     -0.0003
     62  CZ         0.8410   27.5510   46.8250 C.ar  207  PHE207     -0.0000
     63  N          1.1490   24.0240   51.9170 N.3   211  ASP211     -0.1239
     64  CA         0.2530   24.4250   50.8340 C.3   211  ASP211      0.1674
     65  C          0.8380   24.2740   49.4320 C.2   211  ASP211      0.2266
     66  O          0.1230   23.8740   48.4520 O.2   211  ASP211     -0.2867
     67  CB        -0.1660   25.8790   51.0220 C.3   211  ASP211      0.1410
     68  CG        -1.0470   26.1030   52.2020 C.2   211  ASP211      0.3668
     69  OD1       -1.6050   25.1310   52.7870 O.co2 211  ASP211     -0.2456
     70  OD2       -1.1450   27.2940   52.5520 O.co2 211  ASP211     -0.2456
     71  N          0.6080   20.6410   48.7990 N.3   214  GLU214     -0.1231
     72  CA        -0.7890   20.3860   48.4820 C.3   214  GLU214      0.1699
     73  C         -1.2800   20.7200   47.0700 C.2   214  GLU214      0.2592
     74  O         -1.9750   19.9090   46.4420 O.2   214  GLU214     -0.2718
     75  CB        -1.6980   21.0080   49.5540 C.3   214  GLU214      0.0402
     76  CG        -3.1100   20.5770   49.4020 C.3   214  GLU214      0.1161
     77  CD        -3.9810   20.9990   50.5860 C.2   214  GLU214      0.3649
     78  OE1       -3.4910   21.6670   51.5290 O.co2 214  GLU214     -0.2457
     79  OE2       -5.1480   20.6150   50.5870 O.co2 214  GLU214     -0.2457
     80  N         -0.9150   21.8910   46.5520 N.am  215  VAL215     -0.1980
     81  CA        -1.1890   22.3020   45.1670 C.3   215  VAL215      0.1595
     82  C         -0.5140   21.3460   44.1540 C.2   215  VAL215      0.2287
     83  O         -1.1470   20.9290   43.1980 O.2   215  VAL215     -0.2864
     84  CB        -0.8010   23.7960   44.9510 C.3   215  VAL215      0.0276
     85  CG1       -0.9210   24.2440   43.4690 C.3   215  VAL215      0.0022
     86  CG2       -1.6960   24.7150   45.8780 C.3   215  VAL215      0.0022
     87  N         -2.4970   18.1040   44.2390 N.3   218  ARG218     -0.1245
     88  CA        -3.7950   18.3190   43.5870 C.3   218  ARG218      0.1563
     89  C         -3.6720   18.4070   42.0800 C.2   218  ARG218      0.2260
     90  O         -4.5230   17.8750   41.3650 O.2   218  ARG218     -0.2867
     91  CB        -4.4680   19.5820   44.1540 C.3   218  ARG218      0.0307
     92  CG        -5.8290   19.8580   43.6230 C.3   218  ARG218      0.0489
     93  CD        -6.5150   21.0650   44.3110 C.3   218  ARG218      0.2205
     94  NE        -6.0820   22.3500   43.7270 N.pl3 218  ARG218     -0.0865
     95  CZ        -5.3490   23.2770   44.3540 C.cat 218  ARG218      0.5346
     96  NH1       -4.9590   23.1140   45.6200 N.pl3 218  ARG218      0.1354
     97  NH2       -5.0420   24.3970   43.7260 N.pl3 218  ARG218      0.1354
@<TRIPOS>BOND
     1    37    36    2
     2    36    35    1
     3    35    38    1
     4    35    34    1
     5    25    23    1
     6    38    39    1
     7    23    22    1
     8    24    22    1
     9    40    39   ar
    10    40    42   ar
    11    39    41   ar
    12    22    19    1
    13    19    20    1
    14    19    18    1
    15    28    27    1
    16    28    29    2
    17    42    44   ar
    18    26    20   am
    19    26    27    1
    20    90    89    2
    21     1     2    1
    22    41    43   ar
    23    33    31   ar
    24    30    27    1
    25    30    31    1
    26    20    21    2
    27    18    12   am
    28    13    12    2
    29     3     2    1
    30     3     4    2
    31    89    88    1
    32    31    32   ar
    33    12    11    1
    34     2     5    1
    35    44    43   ar
    36    10    11    1
    37    83    82    2
    38    11    14    1
    39    85    84    1
    40    88    91    1
    41    88    87    1
    42    92    91    1
    43    92    93    1
    44    97    95    1
    45    94    93    1
    46    94    95    2
    47     5     6    1
    48    82    81    1
    49    95    96    1
    50     6     7    1
    51    14    16    1
    52    14    15    1
    53    84    81    1
    54    84    86    1
    55    81    80    1
    56    15    17    1
    57     7     8    2
    58     7     9   am
    59    74    73    2
    60    80    73   am
    61    61    62   ar
    62    61    59   ar
    63    62    60   ar
    64    73    72    1
    65    59    57   ar
    66    60    58   ar
    67    45    46    1
    68    66    65    2
    69    72    71    1
    70    72    75    1
    71    57    58   ar
    72    57    56    1
    73    51    49    1
    74    46    49    1
    75    46    47    1
    76    76    75    1
    77    76    77    1
    78    65    64    1
    79    56    53    1
    80    49    50    1
    81    48    47    2
    82    77    79   ar
    83    77    78   ar
    84    64    67    1
    85    64    63    1
    86    67    68    1
    87    53    54    1
    88    53    52    1
    89    55    54    2
    90    68    70   ar
    91    68    69   ar
