@<TRIPOS>MOLECULE
tmp/2q80F00.pdb
 204 188 0 0 0
SMALL
GASTEIGER

@<TRIPOS>ATOM
      1  N        -65.7080  -36.2080  -79.1650 N.3    26  LEU26      -0.1245
      2  CA       -66.4150  -35.0640  -78.5920 C.3    26  LEU26       0.1561
      3  C        -66.1450  -33.7670  -79.3420 C.2    26  LEU26       0.2260
      4  O        -67.1060  -33.0780  -79.7550 O.2    26  LEU26      -0.2867
      5  CB       -66.0590  -34.8620  -77.1200 C.3    26  LEU26       0.0270
      6  CG       -67.1130  -35.3550  -76.1290 C.3    26  LEU26       0.0019
      7  CD1      -67.4140  -36.8240  -76.3040 C.3    26  LEU26       0.0001
      8  CD2      -66.6490  -35.0630  -74.7200 C.3    26  LEU26       0.0001
      9  N        -56.3920  -31.5690  -69.3280 N.3    52  HIS52      -0.1241
     10  CA       -57.0290  -32.8030  -68.8740 C.3    52  HIS52       0.1621
     11  C        -55.9600  -33.7370  -68.3150 C.2    52  HIS52       0.2264
     12  O        -56.0310  -34.1380  -67.1560 O.2    52  HIS52      -0.2867
     13  CB       -57.8130  -33.4860  -70.0040 C.3    52  HIS52       0.0745
     14  CG       -58.6380  -34.6580  -69.5560 C.ar   52  HIS52       0.0817
     15  ND1      -58.3910  -35.9500  -69.9730 N.ar   52  HIS52      -0.2268
     16  CD2      -59.7120  -34.7310  -68.7360 C.ar   52  HIS52       0.1154
     17  CE1      -59.2740  -36.7680  -69.4240 C.ar   52  HIS52       0.1986
     18  NE2      -60.0880  -36.0520  -68.6700 N.ar   52  HIS52      -0.2212
     19  N        -54.4000  -32.5850  -65.1320 N.3    55  SER55      -0.1202
     20  CA       -55.3210  -32.7410  -64.0170 C.3    55  SER55       0.2020
     21  C        -55.5260  -34.2110  -63.6260 C.2    55  SER55       0.2618
     22  O        -55.9200  -34.4740  -62.4850 O.2    55  SER55      -0.2717
     23  CB       -56.6630  -32.0800  -64.3030 C.3    55  SER55       0.2103
     24  OG       -57.4280  -32.8790  -65.1780 O.3    55  SER55      -0.2182
     25  N        -55.2590  -35.1600  -64.5340 N.am   56  LEU56      -0.1979
     26  CA       -55.3780  -36.5840  -64.1930 C.3    56  LEU56       0.1596
     27  C        -54.1630  -37.0570  -63.4280 C.2    56  LEU56       0.2287
     28  O        -54.2740  -37.9460  -62.5840 O.2    56  LEU56      -0.2864
     29  CB       -55.5630  -37.4650  -65.4240 C.3    56  LEU56       0.0297
     30  CG       -56.9150  -37.4640  -66.1410 C.3    56  LEU56       0.0022
     31  CD1      -56.8030  -38.4130  -67.3340 C.3    56  LEU56       0.0001
     32  CD2      -58.1120  -37.8280  -65.2100 C.3    56  LEU56       0.0001
     33  N        -54.9420  -35.8530  -60.0170 N.3    59  ASP59      -0.1225
     34  CA       -56.0160  -36.6760  -59.4480 C.3    59  ASP59       0.1805
     35  C        -55.5120  -38.0410  -58.9610 C.2    59  ASP59       0.2597
     36  O        -55.9630  -38.5420  -57.9280 O.2    59  ASP59      -0.2718
     37  CB       -57.2010  -36.8550  -60.4160 C.3    59  ASP59       0.1424
     38  CG       -58.2260  -37.8600  -59.9060 C.2    59  ASP59       0.3668
     39  OD1      -59.2720  -37.4450  -59.3900 O.co2  59  ASP59      -0.2456
     40  OD2      -57.9650  -39.0730  -60.0010 O.co2  59  ASP59      -0.2456
     41  N        -54.5870  -38.6460  -59.6930 N.am   60  ASP60      -0.1974
     42  CA       -54.0740  -39.9450  -59.2750 C.3    60  ASP60       0.1709
     43  C        -53.2550  -39.8620  -57.9840 C.2    60  ASP60       0.2293
     44  O        -53.2120  -40.8180  -57.2370 O.2    60  ASP60      -0.2864
     45  CB       -53.2240  -40.5900  -60.3810 C.3    60  ASP60       0.1436
     46  CG       -54.0590  -41.1200  -61.5530 C.2    60  ASP60       0.3671
     47  OD1      -55.2690  -41.4510  -61.3880 O.co2  60  ASP60      -0.2456
     48  OD2      -53.4680  -41.2180  -62.6590 O.co2  60  ASP60      -0.2456
     49  N        -55.8610  -39.2700  -55.2110 N.3    63  ASP63      -0.1239
     50  CA       -56.7780  -40.3700  -54.9900 C.3    63  ASP63       0.1674
     51  C        -56.0220  -41.6740  -54.6210 C.2    63  ASP63       0.2266
     52  O        -56.6410  -42.7030  -54.3530 O.2    63  ASP63      -0.2867
     53  CB       -57.7190  -40.5080  -56.2230 C.3    63  ASP63       0.1410
     54  CG       -58.6270  -39.2430  -56.4400 C.2    63  ASP63       0.3668
     55  OD1      -59.6050  -39.2550  -57.2350 O.co2  63  ASP63      -0.2456
     56  OD2      -58.3650  -38.2070  -55.8060 O.co2  63  ASP63      -0.2456
     57  N        -54.3150  -43.7310  -56.3950 N.3    65  SER65      -0.1217
     58  CA       -54.7340  -44.7510  -57.3170 C.3    65  SER65       0.1889
     59  C        -53.5170  -45.5430  -57.8160 C.2    65  SER65       0.2288
     60  O        -52.4100  -45.0260  -57.8290 O.2    65  SER65      -0.2866
     61  CB       -55.5210  -44.0770  -58.4360 C.3    65  SER65       0.2089
     62  OG       -56.6280  -43.3390  -57.8890 O.3    65  SER65      -0.2183
     63  N        -54.3940  -46.4330  -64.1950 N.3    68  ARG68      -0.1245
     64  CA       -55.3420  -45.6590  -64.9740 C.3    68  ARG68       0.1563
     65  C        -55.4070  -46.2740  -66.3550 C.2    68  ARG68       0.2260
     66  O        -54.3940  -46.3820  -67.0370 O.2    68  ARG68      -0.2867
     67  CB       -54.9270  -44.1970  -65.0620 C.3    68  ARG68       0.0307
     68  CG       -55.9240  -43.3260  -65.8230 C.3    68  ARG68       0.0489
     69  CD       -55.5670  -41.8520  -65.7560 C.3    68  ARG68       0.2205
     70  NE       -55.8850  -41.2410  -64.4700 N.pl3  68  ARG68      -0.0865
     71  CZ       -57.1000  -40.8570  -64.0990 C.cat  68  ARG68       0.5346
     72  NH1      -57.2770  -40.3190  -62.9030 N.pl3  68  ARG68       0.1354
     73  NH2      -58.1320  -40.9880  -64.9190 N.pl3  68  ARG68       0.1354
     74  N        -63.0900  -26.1540  -62.0610 N.3   117  LEU117     -0.1245
     75  CA       -62.5690  -27.5230  -61.8980 C.3   117  LEU117      0.1561
     76  C        -62.0850  -27.7940  -60.4670 C.2   117  LEU117      0.2260
     77  O        -62.4120  -28.8280  -59.8690 O.2   117  LEU117     -0.2867
     78  CB       -61.4090  -27.7740  -62.8580 C.3   117  LEU117      0.0270
     79  CG       -60.5190  -28.9990  -62.6430 C.3   117  LEU117      0.0019
     80  CD1      -61.2580  -30.2920  -62.9280 C.3   117  LEU117      0.0001
     81  CD2      -59.3080  -28.8500  -63.5350 C.3   117  LEU117      0.0001
     82  N        -63.0660  -30.7800  -57.4700 N.3   121  GLN121     -0.1245
     83  CA       -62.0500  -31.6610  -56.8940 C.3   121  GLN121      0.1566
     84  C        -61.9640  -31.4220  -55.3900 C.2   121  GLN121      0.2260
     85  O        -61.9510  -32.3670  -54.6020 O.2   121  GLN121     -0.2867
     86  CB       -60.6740  -31.4040  -57.5170 C.3   121  GLN121      0.0367
     87  CG       -60.5300  -31.9180  -58.9230 C.3   121  GLN121      0.0905
     88  CD       -60.4220  -33.4360  -58.9990 C.2   121  GLN121      0.2608
     89  OE1      -61.4360  -34.1390  -59.0480 O.2   121  GLN121     -0.2717
     90  NE2      -59.1810  -33.9540  -59.0080 N.am  121  GLN121     -0.0878
     91  N        -64.8970  -33.1360  -53.6900 N.3   124  ASP124     -0.1239
     92  CA       -64.6540  -34.5830  -53.6930 C.3   124  ASP124      0.1674
     93  C        -63.7140  -34.9670  -52.5350 C.2   124  ASP124      0.2266
     94  O        -63.9940  -35.8550  -51.7310 O.2   124  ASP124     -0.2867
     95  CB       -64.0300  -34.9910  -55.0460 C.3   124  ASP124      0.1410
     96  CG       -64.1960  -36.4740  -55.3740 C.2   124  ASP124      0.3668
     97  OD1      -64.9960  -37.1720  -54.7510 O.co2 124  ASP124     -0.2456
     98  OD2      -63.5130  -36.9550  -56.2850 O.co2 124  ASP124     -0.2456
     99  N        -66.8290  -30.2860  -61.3600 N.3   146  LYS146     -0.1231
    100  CA       -65.6050  -31.0350  -61.6210 C.3   146  LYS146      0.1693
    101  C        -65.3990  -31.2560  -63.1280 C.2   146  LYS146      0.2592
    102  O        -64.3430  -30.9100  -63.6840 O.2   146  LYS146     -0.2718
    103  CB       -65.6510  -32.3730  -60.8760 C.3   146  LYS146      0.0285
    104  CG       -64.5080  -33.3310  -61.2120 C.3   146  LYS146      0.0035
    105  CD       -64.3080  -34.4040  -60.1460 C.3   146  LYS146      0.0206
    106  CE       -65.5000  -35.3130  -60.0450 C.3   146  LYS146      0.1093
    107  NZ       -65.3620  -36.3390  -59.0060 N.3   146  LYS146     -0.1314
    108  N        -66.4240  -31.8280  -63.7600 N.am  147  THR147     -0.1953
    109  CA       -66.4090  -32.1720  -65.1790 C.3   147  THR147      0.1897
    110  C        -66.6510  -30.9370  -66.0490 C.2   147  THR147      0.2313
    111  O        -66.0570  -30.7940  -67.1270 O.2   147  THR147     -0.2863
    112  CB       -67.5070  -33.2130  -65.4900 C.3   147  THR147      0.1794
    113  OG1      -68.7520  -32.7390  -64.9820 O.3   147  THR147     -0.2208
    114  CG2      -67.1910  -34.5480  -64.8270 C.3   147  THR147      0.0378
    115  N        -63.5730  -28.6760  -67.2650 N.3   150  LEU150     -0.1231
    116  CA       -62.9580  -28.9570  -68.5770 C.3   150  LEU150      0.1693
    117  C        -63.9810  -28.9480  -69.7180 C.2   150  LEU150      0.2592
    118  O        -63.7430  -28.3240  -70.7500 O.2   150  LEU150     -0.2718
    119  CB       -62.1640  -30.2690  -68.5800 C.3   150  LEU150      0.0284
    120  CG       -61.0380  -30.2800  -67.5490 C.3   150  LEU150      0.0019
    121  CD1      -61.4300  -31.1120  -66.3170 C.3   150  LEU150      0.0001
    122  CD2      -59.7610  -30.8090  -68.1720 C.3   150  LEU150      0.0001
    123  N        -65.1110  -29.6270  -69.5630 N.am  151  PHE151     -0.1976
    124  CA       -66.1120  -29.6000  -70.6380 C.3   151  PHE151      0.1639
    125  C        -66.3220  -28.1670  -71.1120 C.2   151  PHE151      0.2290
    126  O        -66.3000  -27.8840  -72.3050 O.2   151  PHE151     -0.2864
    127  CB       -67.4590  -30.1500  -70.1710 C.3   151  PHE151      0.0560
    128  CG       -67.6860  -31.5980  -70.4960 C.ar  151  PHE151     -0.0200
    129  CD1      -68.0310  -31.9780  -71.7830 C.ar  151  PHE151     -0.0042
    130  CD2      -67.6010  -32.5780  -69.5020 C.ar  151  PHE151     -0.0042
    131  CE1      -68.2650  -33.3070  -72.0750 C.ar  151  PHE151     -0.0003
    132  CE2      -67.8320  -33.9100  -69.7880 C.ar  151  PHE151     -0.0003
    133  CZ       -68.1680  -34.2750  -71.0670 C.ar  151  PHE151     -0.0000
    134  N        -70.9490  -38.9930  -67.6090 N.3   179  PHE179     -0.1227
    135  CA       -69.5920  -39.5180  -67.6060 C.3   179  PHE179      0.1736
    136  C        -69.1260  -39.9860  -66.2310 C.2   179  PHE179      0.2595
    137  O        -68.6280  -41.1060  -66.0970 O.2   179  PHE179     -0.2718
    138  CB       -68.6090  -38.4710  -68.1530 C.3   179  PHE179      0.0547
    139  CG       -68.4850  -38.4920  -69.6440 C.ar  179  PHE179     -0.0202
    140  CD1      -67.6600  -39.4170  -70.2650 C.ar  179  PHE179     -0.0042
    141  CD2      -69.2130  -37.6150  -70.4300 C.ar  179  PHE179     -0.0042
    142  CE1      -67.5550  -39.4500  -71.6390 C.ar  179  PHE179     -0.0003
    143  CE2      -69.1110  -37.6440  -71.8040 C.ar  179  PHE179     -0.0003
    144  CZ       -68.2830  -38.5580  -72.4100 C.ar  179  PHE179     -0.0000
    145  N        -69.2600  -39.1260  -65.2230 N.am  180  GLN180     -0.1979
    146  CA       -68.7790  -39.4410  -63.8710 C.3   180  GLN180      0.1601
    147  C        -69.5210  -40.6570  -63.2750 C.2   180  GLN180      0.2287
    148  O        -68.8960  -41.5780  -62.7580 O.2   180  GLN180     -0.2864
    149  CB       -68.9100  -38.2020  -62.9630 C.3   180  GLN180      0.0394
    150  CG       -68.4490  -38.3930  -61.5180 C.3   180  GLN180      0.0908
    151  CD       -67.0070  -38.8760  -61.4090 C.2   180  GLN180      0.2608
    152  OE1      -66.0770  -38.2120  -61.8690 O.2   180  GLN180     -0.2717
    153  NE2      -66.8170  -40.0360  -60.7850 N.am  180  GLN180     -0.0878
    154  N        -68.5830  -43.7980  -64.9070 N.3   183  ASP183     -0.1239
    155  CA       -67.3260  -44.1470  -64.2710 C.3   183  ASP183      0.1674
    156  C        -67.5310  -44.8930  -62.9430 C.2   183  ASP183      0.2266
    157  O        -67.0750  -46.0270  -62.7830 O.2   183  ASP183     -0.2867
    158  CB       -66.4990  -42.8700  -64.0370 C.3   183  ASP183      0.1410
    159  CG       -65.2190  -42.8480  -64.8230 C.2   183  ASP183      0.3668
    160  OD1      -65.3060  -42.8490  -66.0710 O.co2 183  ASP183     -0.2456
    161  OD2      -64.1360  -42.8280  -64.1730 O.co2 183  ASP183     -0.2456
    162  N        -66.4800  -48.7980  -62.0500 N.3   187  ASN187     -0.1240
    163  CA       -65.4370  -49.0410  -61.0420 C.3   187  ASN187      0.1653
    164  C        -65.8000  -50.1460  -60.0340 C.2   187  ASN187      0.2266
    165  O        -64.9540  -50.9610  -59.6730 O.2   187  ASN187     -0.2867
    166  CB       -65.0820  -47.7370  -60.3070 C.3   187  ASN187      0.1155
    167  CG       -63.6970  -47.7810  -59.7000 C.2   187  ASN187      0.2627
    168  OD1      -63.5050  -48.2880  -58.5770 O.2   187  ASN187     -0.2716
    169  ND2      -62.7100  -47.2560  -60.4410 N.am  187  ASN187     -0.0877
    170  N        -58.1120  -49.2250  -64.2720 N.3   191  LYS191     -0.1245
    171  CA       -58.1290  -49.3580  -62.8060 C.3   191  LYS191      0.1561
    172  C        -58.3100  -50.8340  -62.3640 C.2   191  LYS191      0.2260
    173  O        -59.0750  -51.5740  -62.9770 O.2   191  LYS191     -0.2867
    174  CB       -59.2190  -48.4480  -62.2040 C.3   191  LYS191      0.0271
    175  CG       -59.2860  -47.0490  -62.8700 C.3   191  LYS191      0.0035
    176  CD       -60.0980  -46.0160  -62.0660 C.3   191  LYS191      0.0206
    177  CE       -59.4890  -44.6210  -62.1880 C.3   191  LYS191      0.1093
    178  NZ       -59.9080  -43.7640  -61.0620 N.3   191  LYS191     -0.1314
    179  N        -62.1030  -47.3840  -56.1480 N.3   196  ASP196     -0.1239
    180  CA       -62.9220  -46.3440  -55.4880 C.3   196  ASP196      0.1674
    181  C        -63.2010  -46.6760  -53.9980 C.2   196  ASP196      0.2266
    182  O        -63.4300  -45.7660  -53.1870 O.2   196  ASP196     -0.2867
    183  CB       -64.2640  -46.1130  -56.2370 C.3   196  ASP196      0.1410
    184  CG       -64.1610  -45.1020  -57.4340 C.2   196  ASP196      0.3668
    185  OD1      -63.0250  -44.7790  -57.8720 O.co2 196  ASP196     -0.2456
    186  OD2      -65.2450  -44.6550  -57.9440 O.co2 196  ASP196     -0.2456
    187  N        -59.6600  -46.0480  -52.3400 N.3   199  GLU199     -0.1245
    188  CA       -59.5060  -44.5990  -52.2540 C.3   199  GLU199      0.1567
    189  C        -60.2210  -44.0820  -51.0240 C.2   199  GLU199      0.2260
    190  O        -59.7200  -43.1880  -50.3390 O.2   199  GLU199     -0.2867
    191  CB       -60.0800  -43.9390  -53.4890 C.3   199  GLU199      0.0388
    192  CG       -59.9160  -42.4210  -53.5810 C.3   199  GLU199      0.1160
    193  CD       -60.4070  -41.8800  -54.9330 C.2   199  GLU199      0.3649
    194  OE1      -60.5100  -42.6700  -55.9070 O.co2 199  GLU199     -0.2457
    195  OE2      -60.6980  -40.6710  -55.0260 O.co2 199  GLU199     -0.2457
    196  N        -63.3800  -43.0480  -51.4990 N.3   201  LYS201     -0.1245
    197  CA       -64.2140  -41.9700  -52.0380 C.3   201  LYS201      0.1561
    198  C        -65.6500  -42.3930  -51.9810 C.2   201  LYS201      0.2260
    199  O        -65.9500  -43.5890  -52.0080 O.2   201  LYS201     -0.2867
    200  CB       -63.7960  -41.5220  -53.4670 C.3   201  LYS201      0.0271
    201  CG       -64.4790  -42.0540  -54.6810 C.3   201  LYS201      0.0035
    202  CD       -64.1020  -41.2120  -55.9130 C.3   201  LYS201      0.0206
    203  CE       -63.2770  -42.0320  -56.8910 C.3   201  LYS201      0.1093
    204  NZ       -62.8900  -41.1540  -58.0470 N.3   201  LYS201     -0.1314
@<TRIPOS>BOND
     1     4     3    2
     2     3     2    1
     3     1     2    1
     4     2     5    1
     5     5     6    1
     6     7     6    1
     7     6     8    1
     8   144   143   ar
     9   144   142   ar
    10   126   125    2
    11   131   129   ar
    12   131   133   ar
    13   143   141   ar
    14   129   128   ar
    15   142   140   ar
    16   125   124    1
    17   133   132   ar
    18   118   117    2
    19   124   127    1
    20   124   123    1
    21   128   127    1
    22   128   130   ar
    23   141   139   ar
    24   140   139   ar
    25    13    14    1
    26    13    10    1
    27    15    14   ar
    28    15    17   ar
    29   132   130   ar
    30   117   123   am
    31   117   116    1
    32   139   138    1
    33    14    16   ar
    34    17    18   ar
    35     9    10    1
    36    10    11    1
    37    16    18   ar
    38   119   116    1
    39   119   120    1
    40   116   115    1
    41    11    12    2
    42   122   120    1
    43   138   135    1
    44   134   135    1
    45   135   136    1
    46   120   121    1
    47    31    30    1
    48   111   110    2
    49    66    65    2
    50    65    64    1
    51   136   137    2
    52   136   145   am
    53    30    29    1
    54    30    32    1
    55   160   159   ar
    56   110   109    1
    57    68    69    1
    58    68    67    1
    59    69    70    1
    60   112   109    1
    61   112   113    1
    62   112   114    1
    63    29    26    1
    64   145   146    1
    65   109   108    1
    66    24    23    1
    67    19    20    1
    68    67    64    1
    69    64    63    1
    70    73    71    1
    71   154   155    1
    72   159   161   ar
    73   159   158    1
    74    25    26    1
    75    25    21   am
    76    70    71    2
    77    23    20    1
    78   170   171    1
    79   155   158    1
    80   155   156    1
    81    26    27    1
    82    71    72    1
    83    20    21    1
    84   146   147    1
    85   146   149    1
    86   108   101   am
    87   102   101    2
    88    21    22    2
    89    81    79    1
    90    27    28    2
    91   147   148    2
    92   101   100    1
    93   173   172    2
    94   149   150    1
    95   156   157    2
    96    80    79    1
    97   175   174    1
    98   175   176    1
    99    78    79    1
   100    78    75    1
   101   171   172    1
   102   171   174    1
   103    48    46   ar
   104   177   176    1
   105   177   178    1
   106    74    75    1
   107   162   163    1
   108    75    76    1
   109   152   151    2
   110   100    99    1
   111   100   103    1
   112    46    47   ar
   113    46    45    1
   114   150   151    1
   115   151   153   am
   116   104   103    1
   117   104   105    1
   118   163   166    1
   119   163   164    1
   120    76    77    2
   121   169   167   am
   122    37    38    1
   123    37    34    1
   124    45    42    1
   125   166   167    1
   126   105   106    1
   127   106   107    1
   128   164   165    2
   129    33    34    1
   130    40    38   ar
   131    38    39   ar
   132   167   168    2
   133    41    42    1
   134    41    35   am
   135    34    35    1
   136    42    43    1
   137    89    88    2
   138    90    88   am
   139    88    87    1
   140    35    36    2
   141    87    86    1
   142    61    62    1
   143    61    58    1
   144   204   203    1
   145    43    44    2
   146   186   184   ar
   147   185   184   ar
   148    60    59    2
   149    59    58    1
   150    86    83    1
   151    82    83    1
   152   184   183    1
   153    58    57    1
   154    55    54   ar
   155    83    84    1
   156   203   202    1
   157    54    53    1
   158    54    56   ar
   159    98    96   ar
   160   183   180    1
   161    53    50    1
   162   179   180    1
   163   202   201    1
   164   194   193   ar
   165   180   181    1
   166    84    85    2
   167    96    95    1
   168    96    97   ar
   169    49    50    1
   170    95    92    1
   171   195   193   ar
   172    50    51    1
   173   193   192    1
   174   201   200    1
   175    51    52    2
   176   181   182    2
   177    92    91    1
   178    92    93    1
   179   192   191    1
   180   191   188    1
   181   200   197    1
   182    93    94    2
   183   187   188    1
   184   188   189    1
   185   197   198    1
   186   197   196    1
   187   199   198    2
   188   189   190    2
