@<TRIPOS>MOLECULE
tmp/2q83A00.pdb
 122 117 0 0 0
SMALL
GASTEIGER

@<TRIPOS>ATOM
      1  N          2.1050   67.5260   64.6010 N.3    30  ILE30      -0.1231
      2  CA         3.4720   68.0530   64.4360 C.3    30  ILE30       0.1692
      3  C          4.5590   66.9660   64.5340 C.2    30  ILE30       0.2591
      4  O          5.0830   66.5580   63.5030 O.2    30  ILE30      -0.2718
      5  CB         3.7560   69.2140   65.4580 C.3    30  ILE30       0.0266
      6  CG1        2.7670   70.3770   65.3010 C.3    30  ILE30       0.0019
      7  CG2        5.1680   69.7410   65.3080 C.3    30  ILE30       0.0020
      8  CD1        2.8170   71.0930   63.9660 C.3    30  ILE30       0.0001
      9  N          4.8920   66.5080   65.7490 N.am   31  GLN31      -0.1979
     10  CA         5.9230   65.4720   65.9940 C.3    31  GLN31       0.1601
     11  C          5.2720   64.1030   66.1810 C.2    31  GLN31       0.2287
     12  O          4.0400   63.9600   66.0390 O.2    31  GLN31      -0.2864
     13  CB         6.7830   65.8210   67.2210 C.3    31  GLN31       0.0394
     14  CG         7.9030   64.8440   67.4980 C.3    31  GLN31       0.0908
     15  CD         8.6210   65.2580   68.7590 C.2    31  GLN31       0.2608
     16  OE1        9.0630   66.3690   68.8820 O.2    31  GLN31      -0.2717
     17  NE2        8.6230   64.3640   69.6990 N.am   31  GLN31      -0.0878
     18  N          2.7910   65.1460   69.2800 N.3    34  VAL34      -0.1245
     19  CA         2.4760   66.5440   69.5680 C.3    34  VAL34       0.1561
     20  C          1.5410   67.1640   68.5290 C.2    34  VAL34       0.2260
     21  O          1.7020   66.9340   67.3360 O.2    34  VAL34      -0.2867
     22  CB         3.7780   67.3720   69.6220 C.3    34  VAL34       0.0252
     23  CG1        3.5090   68.8130   70.0230 C.3    34  VAL34       0.0019
     24  CG2        4.7590   66.7550   70.6000 C.3    34  VAL34       0.0019
     25  N         -0.6600   73.6710   72.9430 N.3    45  CYS45      -0.1235
     26  CA         0.0310   72.4580   72.5690 C.3    45  CYS45       0.1677
     27  C         -0.5360   71.2360   73.2930 C.2    45  CYS45       0.2270
     28  O         -0.5980   71.2510   74.5140 O.2    45  CYS45      -0.2867
     29  CB         1.4920   72.5820   72.9960 C.3    45  CYS45       0.0956
     30  SG         2.5280   71.1800   72.5570 S.3    45  CYS45      -0.0801
     31  N          0.2130   67.3610   74.0040 N.3    47  LYS47      -0.1197
     32  CA         1.3020   66.3850   73.8900 C.3    47  LYS47       0.1778
     33  C          0.8850   65.0460   74.5160 C.2    47  LYS47       0.2305
     34  O          0.3380   65.0320   75.6150 O.2    47  LYS47      -0.2863
     35  CB         2.5770   66.8910   74.5940 C.2    47  LYS47      -0.0042
     36  CG         3.8750   66.1060   74.2810 C.2    47  LYS47      -0.0273
     37  CD         5.0280   66.3080   75.2900 C.3    47  LYS47       0.0462
     38  CE         5.7840   67.6680   75.3140 C.3    47  LYS47       0.1140
     39  NZ         6.7950   67.8660   74.2130 N.3    47  LYS47      -0.1310
     40  N          7.0260   76.4610   78.8410 N.3    73  PRO73      -0.2116
     41  CA         5.5950   76.6290   78.6580 C.3    73  PRO73       0.1372
     42  C          4.8010   76.2010   79.8800 C.2    73  PRO73       0.2244
     43  O          5.1010   75.1660   80.4720 O.2    73  PRO73      -0.2868
     44  CB         5.2810   75.6880   77.4920 C.3    73  PRO73       0.0268
     45  CG         6.5440   75.4740   76.8100 C.3    73  PRO73       0.0207
     46  CD         7.5910   75.5310   77.8540 C.3    73  PRO73       0.0892
     47  N         -0.2440   72.4180   77.0490 N.3    95  TYR95      -0.1227
     48  CA         0.6910   73.4730   77.3840 C.3    95  TYR95       0.1736
     49  C          0.4130   74.6780   76.5190 C.2    95  TYR95       0.2595
     50  O         -0.1310   74.5560   75.4340 O.2    95  TYR95      -0.2718
     51  CB         2.1450   73.0910   77.0730 C.3    95  TYR95       0.0548
     52  CG         2.6560   71.7860   77.6060 C.ar   95  TYR95      -0.0200
     53  CD1        2.5110   70.6170   76.8750 C.ar   95  TYR95      -0.0009
     54  CD2        3.3550   71.7250   78.7990 C.ar   95  TYR95      -0.0009
     55  CE1        2.9960   69.4080   77.3530 C.ar   95  TYR95       0.0417
     56  CE2        3.8560   70.5190   79.2800 C.ar   95  TYR95       0.0417
     57  CZ         3.6760   69.3670   78.5570 C.ar   95  TYR95       0.1957
     58  OH         4.1780   68.1830   79.0380 O.3    95  TYR95      -0.2866
     59  N          0.8700   75.8250   76.9830 N.am   96  ASP96      -0.1960
     60  CA         0.7470   77.0730   76.2690 C.3    96  ASP96       0.1840
     61  C          1.6890   76.9710   75.0810 C.2    96  ASP96       0.2622
     62  O          2.7840   76.4890   75.2470 O.2    96  ASP96      -0.2715
     63  CB         1.1620   78.2150   77.2130 C.3    96  ASP96       0.1450
     64  CG         0.9910   79.5990   76.6150 C.2    96  ASP96       0.3671
     65  OD1        0.1590   79.7980   75.6860 O.co2  96  ASP96      -0.2456
     66  OD2        1.6820   80.5080   77.1280 O.co2  96  ASP96      -0.2456
     67  N          1.2560   77.3540   73.8870 N.am   97  TRP97      -0.1960
     68  CA         2.1010   77.3010   72.7030 C.3    97  TRP97       0.1771
     69  C          2.9350   78.5810   72.6780 C.2    97  TRP97       0.2619
     70  O          2.3800   79.6570   72.5300 O.2    97  TRP97      -0.2715
     71  CB         1.2770   77.1770   71.4110 C.3    97  TRP97       0.0590
     72  CG         2.1650   76.9900   70.2330 C.ar   97  TRP97       0.0006
     73  CD1        2.7860   77.9630   69.5090 C.ar   97  TRP97       0.0946
     74  CD2        2.5790   75.7510   69.6700 C.ar   97  TRP97       0.0152
     75  NE1        3.5640   77.4050   68.5330 N.ar   97  TRP97      -0.2442
     76  CE2        3.4530   76.0450   68.6070 C.ar   97  TRP97       0.0810
     77  CE3        2.2930   74.4170   69.9580 C.ar   97  TRP97       0.0012
     78  CZ2        4.0420   75.0550   67.8310 C.ar   97  TRP97       0.0191
     79  CZ3        2.8800   73.4330   69.1940 C.ar   97  TRP97       0.0001
     80  CH2        3.7450   73.7560   68.1340 C.ar   97  TRP97       0.0015
     81  N          4.2560   78.4610   72.8100 N.am   98  ILE98      -0.1977
     82  CA         5.1580   79.6120   72.8100 C.3    98  ILE98       0.1596
     83  C          5.5820   79.9700   71.3980 C.2    98  ILE98       0.2287
     84  O          6.0110   79.1220   70.6490 O.2    98  ILE98      -0.2864
     85  CB         6.4160   79.3420   73.6580 C.3    98  ILE98       0.0276
     86  CG1        6.0280   78.9850   75.0990 C.3    98  ILE98       0.0022
     87  CG2        7.3270   80.5390   73.6570 C.3    98  ILE98       0.0022
     88  CD1        5.1350   80.0150   75.7890 C.3    98  ILE98       0.0001
     89  N         13.7510   79.5950   66.0890 N.3   102  PRO102     -0.2116
     90  CA        14.8200   78.7120   66.5420 C.3   102  PRO102      0.1372
     91  C         16.1660   79.4170   66.4250 C.2   102  PRO102      0.2244
     92  O         16.2910   80.3740   65.6780 O.2   102  PRO102     -0.2868
     93  CB        14.7530   77.5490   65.5510 C.3   102  PRO102      0.0268
     94  CG        14.2610   78.1580   64.3100 C.3   102  PRO102      0.0207
     95  CD        13.2770   79.2110   64.7430 C.3   102  PRO102      0.0892
     96  N         16.4980   72.2150   68.6980 N.3   214  GLY214     -0.1225
     97  CA        15.1550   71.6540   68.5080 C.3   214  GLY214      0.1811
     98  C         14.1880   71.9120   69.6700 C.2   214  GLY214      0.2280
     99  O         12.9790   71.9640   69.4500 O.2   214  GLY214     -0.2866
    100  N         14.5760   74.7290   71.9830 N.3   216  THR216     -0.1203
    101  CA        14.7260   76.0880   72.5070 C.3   216  THR216      0.1994
    102  C         14.2620   77.0920   71.4770 C.2   216  THR216      0.2617
    103  O         14.2130   76.7970   70.2870 O.2   216  THR216     -0.2717
    104  CB        16.1790   76.4070   72.9610 C.3   216  THR216      0.1784
    105  OG1       17.0750   76.2970   71.8520 O.3   216  THR216     -0.2211
    106  CG2       16.6380   75.4630   74.0630 C.3   216  THR216      0.0376
    107  N         13.9040   78.2770   71.9550 N.am  217  LEU217     -0.1979
    108  CA        13.3970   79.3400   71.1050 C.3   217  LEU217      0.1596
    109  C         13.6770   80.7080   71.6680 C.2   217  LEU217      0.2287
    110  O         13.8350   80.8550   72.8640 O.2   217  LEU217     -0.2864
    111  CB        11.8780   79.2350   71.0060 C.3   217  LEU217      0.0297
    112  CG        11.1690   78.0770   70.3160 C.3   217  LEU217      0.0022
    113  CD1        9.6800   78.1890   70.5800 C.3   217  LEU217      0.0001
    114  CD2       11.4670   78.0610   68.8200 C.3   217  LEU217      0.0001
    115  N         11.6440   74.3940   75.7110 N.3   227  ILE227     -0.1245
    116  CA        10.3670   73.7330   75.3670 C.3   227  ILE227      0.1561
    117  C         10.0350   72.2800   75.7300 C.2   227  ILE227      0.2260
    118  O          8.9020   72.0360   76.1610 O.2   227  ILE227     -0.2867
    119  CB        10.1450   73.8710   73.8170 C.3   227  ILE227      0.0252
    120  CG1        9.3410   75.1250   73.5020 C.3   227  ILE227      0.0019
    121  CG2        9.3650   72.6710   73.2230 C.3   227  ILE227      0.0019
    122  CD1        9.9130   76.4180   74.0480 C.3   227  ILE227      0.0001
@<TRIPOS>BOND
     1     4     3    2
     2     8     6    1
     3    94    95    1
     4    94    93    1
     5     2     3    1
     6     2     1    1
     7     2     5    1
     8     3     9   am
     9    95    89    1
    10     6     5    1
    11     7     5    1
    12    93    90    1
    13    92    91    2
    14     9    10    1
    15    10    11    1
    16    10    13    1
    17    12    11    2
    18    89    90    1
    19    91    90    1
    20    13    14    1
    21    21    20    2
    22    14    15    1
    23    78    80   ar
    24    78    76   ar
    25    80    79   ar
    26    97    96    1
    27    97    98    1
    28    20    19    1
    29    75    76   ar
    30    75    73   ar
    31    76    74   ar
    32    15    16    2
    33    15    17   am
    34   114   112    1
    35    79    77   ar
    36    18    19    1
    37    99    98    2
    38    73    72   ar
    39    19    22    1
    40    22    23    1
    41    22    24    1
    42    74    77   ar
    43    74    72   ar
    44    72    71    1
    45   103   102    2
    46   112   113    1
    47   112   111    1
    48    84    83    2
    49   111   108    1
    50   108   109    1
    51   108   107    1
    52    83    82    1
    53    71    68    1
    54   102   107   am
    55   102   101    1
    56   109   110    2
    57   105   104    1
    58   100   101    1
    59   101   104    1
    60    70    69    2
    61    30    29    1
    62    26    25    1
    63    26    29    1
    64    26    27    1
    65    69    68    1
    66    69    81   am
    67    68    67    1
    68    82    81    1
    69    82    85    1
    70   104   106    1
    71   121   119    1
    72    27    28    2
    73   120   119    1
    74   120   122    1
    75    87    85    1
    76    85    86    1
    77   119   116    1
    78    67    61   am
    79    32    31    1
    80    32    33    1
    81    32    35    1
    82    39    38    1
    83    36    35    2
    84    36    37    1
    85    33    34    2
    86    61    62    2
    87    61    60    1
    88    86    88    1
    89    37    38    1
    90   116   115    1
    91   116   117    1
    92    50    49    2
    93    65    64   ar
    94   117   118    2
    95    60    59    1
    96    60    63    1
    97    49    59   am
    98    49    48    1
    99    64    66   ar
   100    64    63    1
   101    45    44    1
   102    45    46    1
   103    53    55   ar
   104    53    52   ar
   105    47    48    1
   106    51    48    1
   107    51    52    1
   108    55    57   ar
   109    44    41    1
   110    52    54   ar
   111    46    40    1
   112    57    58    1
   113    57    56   ar
   114    41    40    1
   115    41    42    1
   116    54    56   ar
   117    42    43    2
