@<TRIPOS>MOLECULE
tmp/2q85A00.pdb
 160 154 0 0 0
SMALL
GASTEIGER

@<TRIPOS>ATOM
      1  N         16.9310  -10.5260    3.8440 N.3   157  TYR157     -0.1227
      2  CA        15.8500   -9.9610    4.6510 C.3   157  TYR157      0.1736
      3  C         16.2970   -8.6520    5.2970 C.2   157  TYR157      0.2595
      4  O         17.1330   -8.6560    6.2030 O.2   157  TYR157     -0.2718
      5  CB        15.3760  -10.9340    5.7320 C.3   157  TYR157      0.0548
      6  CG        14.3260  -10.3170    6.6290 C.ar  157  TYR157     -0.0200
      7  CD1       13.0470  -10.0540    6.1470 C.ar  157  TYR157     -0.0009
      8  CD2       14.6180   -9.9660    7.9450 C.ar  157  TYR157     -0.0009
      9  CE1       12.0790   -9.4740    6.9550 C.ar  157  TYR157      0.0417
     10  CE2       13.6550   -9.3860    8.7630 C.ar  157  TYR157      0.0417
     11  CZ        12.3880   -9.1420    8.2610 C.ar  157  TYR157      0.1957
     12  OH        11.4290   -8.5660    9.0620 O.3   157  TYR157     -0.2866
     13  N         15.7280   -7.5420    4.8270 N.am  158  ARG158     -0.1980
     14  CA        16.1030   -6.2020    5.2850 C.3   158  ARG158      0.1597
     15  C         17.6170   -6.0060    5.2150 C.2   158  ARG158      0.2287
     16  O         18.2480   -5.5650    6.1780 O.2   158  ARG158     -0.2864
     17  CB        15.5760   -5.9400    6.7030 C.3   158  ARG158      0.0334
     18  CG        14.0600   -6.0580    6.8440 C.3   158  ARG158      0.0492
     19  CD        13.3250   -4.9840    6.0460 C.3   158  ARG158      0.2205
     20  NE        11.8740   -5.0710    6.2090 N.pl3 158  ARG158     -0.0865
     21  CZ        11.0880   -5.9640    5.6070 C.cat 158  ARG158      0.5346
     22  NH1       11.5910   -6.8790    4.7830 N.pl3 158  ARG158      0.1354
     23  NH2        9.7800   -5.9440    5.8350 N.pl3 158  ARG158      0.1354
     24  N         -0.2670  -15.2720    2.4350 N.3   189  TYR189     -0.1241
     25  CA         0.0230  -14.4280    3.5960 C.3   189  TYR189      0.1605
     26  C         -1.2520  -13.7990    4.1560 C.2   189  TYR189      0.2264
     27  O         -1.9850  -13.1250    3.4320 O.2   189  TYR189     -0.2867
     28  CB         1.0090  -13.3180    3.2090 C.3   189  TYR189      0.0534
     29  CG         1.6040  -12.5600    4.3810 C.ar  189  TYR189     -0.0201
     30  CD1        2.9490  -12.7040    4.7170 C.ar  189  TYR189     -0.0009
     31  CD2        0.8300  -11.6860    5.1440 C.ar  189  TYR189     -0.0009
     32  CE1        3.5010  -12.0050    5.7840 C.ar  189  TYR189      0.0417
     33  CE2        1.3730  -10.9860    6.2110 C.ar  189  TYR189      0.0417
     34  CZ         2.7080  -11.1490    6.5260 C.ar  189  TYR189      0.1957
     35  OH         3.2480  -10.4550    7.5820 O.3   189  TYR189     -0.2866
     36  N         -3.2660   -2.5330    5.4500 N.3   213  ARG213     -0.1245
     37  CA        -2.2320   -1.6620    6.0120 C.3   213  ARG213      0.1563
     38  C         -2.8110   -0.4060    6.6640 C.2   213  ARG213      0.2260
     39  O         -2.3370    0.0220    7.7160 O.2   213  ARG213     -0.2867
     40  CB        -1.2240   -1.2660    4.9330 C.3   213  ARG213      0.0307
     41  CG        -0.4020   -2.4280    4.4030 C.3   213  ARG213      0.0489
     42  CD         0.5090   -1.9780    3.2810 C.3   213  ARG213      0.2205
     43  NE         1.5910   -1.1260    3.7740 N.pl3 213  ARG213     -0.0865
     44  CZ         2.7690   -1.5640    4.2180 C.cat 213  ARG213      0.5346
     45  NH1        3.0570   -2.8650    4.2410 N.pl3 213  ARG213      0.1354
     46  NH2        3.6720   -0.6900    4.6440 N.pl3 213  ARG213      0.1354
     47  N         -1.9080   -0.9740   10.4980 N.3   217  LEU217     -0.1231
     48  CA        -0.6090   -0.3490   10.7750 C.3   217  LEU217      0.1678
     49  C         -0.7600    1.0780   11.3150 C.2   217  LEU217      0.2434
     50  O         -1.6690    1.8010   10.9030 O.2   217  LEU217     -0.2733
     51  CB         0.2670   -0.3290    9.5190 C.3   217  LEU217      0.0284
     52  CG         0.4910   -1.6730    8.8220 C.3   217  LEU217      0.0019
     53  CD1        1.2770   -1.4770    7.5340 C.3   217  LEU217      0.0001
     54  CD2        1.2020   -2.6520    9.7430 C.3   217  LEU217      0.0001
     55  N          0.1310    1.4880   12.2430 N.am  218  PRO218     -0.2729
     56  CA         0.1150    2.8640   12.7520 C.3   218  PRO218      0.1401
     57  C          0.4790    3.8970   11.6860 C.2   218  PRO218      0.2269
     58  O          1.4380    3.7000   10.9380 O.2   218  PRO218     -0.2865
     59  CB         1.1820    2.8510   13.8590 C.3   218  PRO218      0.0296
     60  CG         1.4390    1.4230   14.1520 C.3   218  PRO218      0.0237
     61  CD         1.1880    0.6890   12.8870 C.3   218  PRO218      0.0939
     62  N          6.3160    7.8390   13.3750 N.3   225  ASN225     -0.1240
     63  CA         7.0190    6.5620   13.5010 C.3   225  ASN225      0.1653
     64  C          7.8280    6.2320   12.2490 C.2   225  ASN225      0.2266
     65  O          7.6740    6.8810   11.2130 O.2   225  ASN225     -0.2867
     66  CB         6.0240    5.4310   13.7900 C.3   225  ASN225      0.1155
     67  CG         5.0420    5.2050   12.6510 C.2   225  ASN225      0.2627
     68  OD1        5.3600    4.5450   11.6610 O.2   225  ASN225     -0.2716
     69  ND2        3.8360    5.7420   12.7950 N.am  225  ASN225     -0.0877
     70  N          7.8680    2.9350   10.9540 N.3   227  GLY227     -0.1210
     71  CA         7.4170    1.5630   10.7280 C.3   227  GLY227      0.1956
     72  C          7.8270    0.6420   11.8620 C.2   227  GLY227      0.2612
     73  O          7.8180    1.0430   13.0280 O.2   227  GLY227     -0.2717
     74  N          8.1810   -0.5950   11.5210 N.am  228  SER228     -0.1952
     75  CA         8.7170   -1.5390   12.4970 C.3   228  SER228      0.1924
     76  C         10.1000   -1.0680   12.9330 C.2   228  SER228      0.2314
     77  O         11.0200   -0.9960   12.1160 O.2   228  SER228     -0.2863
     78  CB         8.8110   -2.9450   11.9020 C.3   228  SER228      0.2116
     79  OG         7.5340   -3.4280   11.5250 O.3   228  SER228     -0.2180
     80  N         12.5140   -8.4000   12.2260 N.3   232  ASN232     -0.1240
     81  CA        12.1020   -9.7210   12.6880 C.3   232  ASN232      0.1653
     82  C         13.3530  -10.5920   12.8090 C.2   232  ASN232      0.2266
     83  O         13.9990  -10.8780   11.8000 O.2   232  ASN232     -0.2867
     84  CB        11.1020  -10.3570   11.7190 C.3   232  ASN232      0.1155
     85  CG         9.7530   -9.6570   11.7240 C.2   232  ASN232      0.2627
     86  OD1        9.2090   -9.3350   12.7810 O.2   232  ASN232     -0.2716
     87  ND2        9.2000   -9.4290   10.5380 N.am  232  ASN232     -0.0877
     88  N          5.2980  -17.6080   16.3380 N.3   251  PRO251     -0.2102
     89  CA         5.2720  -17.5580   14.8740 C.3   251  PRO251      0.1504
     90  C          6.6750  -17.5710   14.2700 C.2   251  PRO251      0.2576
     91  O          7.5330  -16.7900   14.6870 O.2   251  PRO251     -0.2718
     92  CB         4.5710  -16.2250   14.5700 C.3   251  PRO251      0.0282
     93  CG         3.8710  -15.8490   15.8180 C.3   251  PRO251      0.0208
     94  CD         4.6820  -16.4090   16.9340 C.3   251  PRO251      0.0893
     95  N          6.8990  -18.4560   13.3020 N.am  252  ASN252     -0.1961
     96  CA         8.2120  -18.6000   12.6790 C.3   252  ASN252      0.1819
     97  C          8.1270  -19.1190   11.2450 C.2   252  ASN252      0.2621
     98  O          7.2450  -19.9140   10.9160 O.2   252  ASN252     -0.2715
     99  CB         9.0990  -19.5220   13.5240 C.3   252  ASN252      0.1195
    100  CG         8.5580  -20.9390   13.6160 C.2   252  ASN252      0.2630
    101  OD1        8.8030  -21.7690   12.7400 O.2   252  ASN252     -0.2716
    102  ND2        7.8290  -21.2260   14.6890 N.am  252  ASN252     -0.0877
    103  N          9.0470  -18.6550   10.4010 N.am  253  TYR253     -0.1974
    104  CA         9.1560  -19.1300    9.0240 C.3   253  TYR253      0.1639
    105  C         10.5890  -19.5660    8.7330 C.2   253  TYR253      0.2290
    106  O         11.5300  -18.8400    9.0570 O.2   253  TYR253     -0.2864
    107  CB         8.7610  -18.0320    8.0330 C.3   253  TYR253      0.0560
    108  CG         7.3110  -17.6000    8.1050 C.ar  253  TYR253     -0.0198
    109  CD1        6.2790  -18.5350    8.0550 C.ar  253  TYR253     -0.0009
    110  CD2        6.9710  -16.2520    8.1940 C.ar  253  TYR253     -0.0009
    111  CE1        4.9480  -18.1400    8.1120 C.ar  253  TYR253      0.0417
    112  CE2        5.6420  -15.8480    8.2480 C.ar  253  TYR253      0.0417
    113  CZ         4.6370  -16.7960    8.2080 C.ar  253  TYR253      0.1957
    114  OH         3.3200  -16.4010    8.2630 O.3   253  TYR253     -0.2866
    115  N         13.1650  -17.1340   10.7550 N.3   261  LYS261     -0.1231
    116  CA        12.7030  -15.7710   11.0280 C.3   261  LYS261      0.1693
    117  C         11.5710  -15.8000   12.0540 C.2   261  LYS261      0.2592
    118  O         10.4830  -16.2990   11.7650 O.2   261  LYS261     -0.2718
    119  CB        12.2150  -15.1070    9.7350 C.3   261  LYS261      0.0285
    120  CG        11.8360  -13.6320    9.8770 C.3   261  LYS261      0.0035
    121  CD        10.9030  -13.1680    8.7610 C.3   261  LYS261      0.0206
    122  CE        11.5850  -13.1830    7.4010 C.3   261  LYS261      0.1093
    123  NZ        10.6970  -12.6580    6.3270 N.3   261  LYS261     -0.1314
    124  N         11.8290  -15.2580   13.2430 N.am  262  LEU262     -0.1966
    125  CA        10.8330  -15.2150   14.3170 C.3   262  LEU262      0.1728
    126  C         10.0740  -13.8890   14.3020 C.2   262  LEU262      0.2616
    127  O         10.5990  -12.8730   13.8530 O.2   262  LEU262     -0.2715
    128  CB        11.5090  -15.4060   15.6760 C.3   262  LEU262      0.0311
    129  CG        12.3400  -16.6800   15.8520 C.3   262  LEU262      0.0022
    130  CD1       13.0900  -16.6470   17.1740 C.3   262  LEU262      0.0001
    131  CD2       11.4620  -17.9200   15.7630 C.3   262  LEU262      0.0001
    132  N          8.8390  -13.9080   14.8000 N.am  263  ALA263     -0.1977
    133  CA         7.9920  -12.7150   14.8270 C.3   263  ALA263      0.1597
    134  C          8.3880  -11.7860   15.9740 C.2   263  ALA263      0.2287
    135  O          8.2270  -12.1340   17.1440 O.2   263  ALA263     -0.2864
    136  CB         6.5280  -13.1100   14.9540 C.3   263  ALA263      0.0319
    137  N          0.6080   -2.9360   16.9410 N.3   287  GLN287     -0.1245
    138  CA         1.8720   -3.4700   16.4310 C.3   287  GLN287      0.1566
    139  C          3.0020   -3.1550   17.4120 C.2   287  GLN287      0.2260
    140  O          3.6040   -2.0820   17.3600 O.2   287  GLN287     -0.2867
    141  CB         2.1820   -2.8930   15.0440 C.3   287  GLN287      0.0367
    142  CG         1.1080   -3.1640   13.9890 C.3   287  GLN287      0.0905
    143  CD         0.8740   -4.6450   13.7340 C.2   287  GLN287      0.2608
    144  OE1        1.7530   -5.4770   13.9630 O.2   287  GLN287     -0.2717
    145  NE2       -0.3190   -4.9790   13.2530 N.am  287  GLN287     -0.0878
    146  N          6.0370   -4.0400   17.7250 N.3   289  LEU289     -0.1231
    147  CA         7.3600   -3.7460   17.1580 C.3   289  LEU289      0.1693
    148  C          7.4970   -2.3020   16.6470 C.2   289  LEU289      0.2591
    149  O          8.6130   -1.8340   16.4110 O.2   289  LEU289     -0.2718
    150  CB         7.7300   -4.7500   16.0510 C.3   289  LEU289      0.0284
    151  CG         6.7040   -5.1480   14.9810 C.3   289  LEU289      0.0019
    152  CD1        6.0870   -3.9370   14.3010 C.3   289  LEU289      0.0001
    153  CD2        7.3530   -6.0630   13.9540 C.3   289  LEU289      0.0001
    154  N          6.3720   -1.6050   16.4810 N.am  290  VAL290     -0.1980
    155  CA         6.3770   -0.2120   16.0330 C.3   290  VAL290      0.1595
    156  C          6.4590    0.7540   17.2150 C.2   290  VAL290      0.2287
    157  O          5.5060    0.8830   17.9850 O.2   290  VAL290     -0.2864
    158  CB         5.1090    0.1230   15.2170 C.3   290  VAL290      0.0276
    159  CG1        5.1180    1.5870   14.7900 C.3   290  VAL290      0.0022
    160  CG2        5.0050   -0.7820   14.0060 C.3   290  VAL290      0.0022
@<TRIPOS>BOND
     1    24    25    1
     2    28    25    1
     3    28    29    1
     4    42    43    1
     5    42    41    1
     6    27    26    2
     7    25    26    1
     8    43    44    2
     9     1     2    1
    10    44    45    1
    11    44    46    1
    12    29    30   ar
    13    29    31   ar
    14    41    40    1
    15     2     3    1
    16     2     5    1
    17    30    32   ar
    18    22    21    1
    19    13    14    1
    20    13     3   am
    21    40    37    1
    22    31    33   ar
    23    15    14    1
    24    15    16    2
    25    14    17    1
    26     3     4    2
    27    36    37    1
    28    21    23    1
    29    21    20    2
    30     5     6    1
    31    32    34   ar
    32    37    38    1
    33    19    20    1
    34    19    18    1
    35     7     6   ar
    36     7     9   ar
    37    33    34   ar
    38   123   122    1
    39    34    35    1
    40     6     8   ar
    41    38    39    2
    42    17    18    1
    43     9    11   ar
    44   122   121    1
    45    53    52    1
    46     8    10   ar
    47   107   108    1
    48   107   104    1
    49   109   108   ar
    50   109   111   ar
    51   108   110   ar
    52   111   113   ar
    53   110   112   ar
    54   113   112   ar
    55   113   114    1
    56    11    10   ar
    57    11    12    1
    58   105   104    1
    59   105   106    2
    60   121   120    1
    61    52    51    1
    62    52    54    1
    63   104   103    1
    64    51    48    1
    65   119   120    1
    66   119   116    1
    67   103    97   am
    68    47    48    1
    69    87    85   am
    70    71    70    1
    71    71    72    1
    72   115   116    1
    73    48    49    1
    74    50    49    2
    75    98    97    2
    76    58    57    2
    77   116   117    1
    78    65    64    2
    79    97    96    1
    80    49    55   am
    81    74    72   am
    82    74    75    1
    83    79    78    1
    84    68    67    2
    85    57    56    1
    86    84    85    1
    87    84    81    1
    88    85    86    2
    89   118   117    2
    90    83    82    2
    91    72    73    2
    92    78    75    1
    93   117   124   am
    94    77    76    2
    95    80    81    1
    96    55    56    1
    97    55    61    1
    98    64    63    1
    99    75    76    1
   100    67    69   am
   101    67    66    1
   102    96    95    1
   103    96    99    1
   104    81    82    1
   105   101   100    2
   106    56    59    1
   107    61    60    1
   108   124   125    1
   109   145   143   am
   110    95    90   am
   111    62    63    1
   112    63    66    1
   113    99   100    1
   114   100   102   am
   115   143   144    2
   116   143   142    1
   117   127   126    2
   118    59    60    1
   119   153   151    1
   120   142   141    1
   121   160   158    1
   122    90    91    2
   123    90    89    1
   124   152   151    1
   125   126   125    1
   126   126   132   am
   127   125   128    1
   128    92    89    1
   129    92    93    1
   130   159   158    1
   131   132   133    1
   132   133   136    1
   133   133   134    1
   134    89    88    1
   135   151   150    1
   136   141   138    1
   137   158   155    1
   138   128   129    1
   139   131   129    1
   140    93    94    1
   141   129   130    1
   142   134   135    2
   143   155   154    1
   144   155   156    1
   145   150   147    1
   146    88    94    1
   147   149   148    2
   148   138   137    1
   149   138   139    1
   150   154   148   am
   151   148   147    1
   152   147   146    1
   153   156   157    2
   154   140   139    2
