@<TRIPOS>MOLECULE
tmp/2q86C01.pdb
 84 80 0 0 0
SMALL
GASTEIGER

@<TRIPOS>ATOM
      1  N        -12.1830   30.0330   31.0840 N.3     1  LYS1       -0.1231
      2  CA       -11.4470   28.9180   31.7440 C.3     1  LYS1        0.1693
      3  C        -12.1080   28.5890   33.0820 C.2     1  LYS1        0.2593
      4  O        -12.2120   29.4470   33.9450 O.2     1  LYS1       -0.2718
      5  CB        -9.9660   29.3080   31.9520 C.3     1  LYS1        0.0285
      6  CG        -9.1620   28.3620   32.8620 C.3     1  LYS1        0.0035
      7  CD        -8.9700   26.9940   32.2140 C.3     1  LYS1        0.0206
      8  CE        -8.6330   25.9170   33.2620 C.3     1  LYS1        0.1093
      9  NZ        -8.2700   24.6350   32.5750 N.3     1  LYS1       -0.1314
     10  N        -12.5550   27.3470   33.2390 N.am    2  THR2       -0.1939
     11  CA       -13.1620   26.9080   34.4810 C.3     2  THR2        0.2028
     12  C        -12.2260   27.1250   35.6690 C.2     2  THR2        0.2642
     13  O        -10.9970   26.9720   35.5600 O.2     2  THR2       -0.2714
     14  CB       -13.6140   25.4400   34.4320 C.3     2  THR2        0.1808
     15  OG1      -14.3070   25.1340   35.6510 O.3     2  THR2       -0.2208
     16  CG2      -12.4170   24.4820   34.2810 C.3     2  THR2        0.0379
     17  N        -12.8120   27.4850   36.8060 N.am    3  GLN3       -0.1976
     18  CA       -12.0090   27.6860   37.9990 C.3     3  GLN3        0.1601
     19  C        -12.0470   26.5280   38.9910 C.2     3  GLN3        0.2287
     20  O        -11.4870   26.6380   40.0720 O.2     3  GLN3       -0.2864
     21  CB       -12.3980   28.9770   38.6960 C.3     3  GLN3        0.0394
     22  CG       -12.0620   30.2220   37.9260 C.3     3  GLN3        0.0908
     23  CD       -12.1100   31.4150   38.8350 C.2     3  GLN3        0.2608
     24  OE1      -13.1900   31.8320   39.2670 O.2     3  GLN3       -0.2717
     25  NE2      -10.9340   31.9760   39.1480 N.am    3  GLN3       -0.0878
     26  N        -11.6290   22.1950   38.9350 N.3     5  GLU5       -0.1245
     27  CA       -11.3730   20.9850   38.1530 C.3     5  GLU5        0.1567
     28  C        -11.3830   19.7420   39.0350 C.2     5  GLU5        0.2260
     29  O        -10.8980   19.7600   40.1670 O.2     5  GLU5       -0.2867
     30  CB       -10.0610   21.0990   37.3610 C.3     5  GLU5        0.0388
     31  CG       -10.1190   22.2630   36.3170 C.3     5  GLU5        0.1160
     32  CD        -8.8360   22.4870   35.5380 C.2     5  GLU5        0.3649
     33  OE1       -7.7540   22.6320   36.1530 O.co2   5  GLU5       -0.2457
     34  OE2       -8.9130   22.5220   34.2940 O.co2   5  GLU5       -0.2457
     35  N        -11.0730   13.8090   43.6760 N.3    22  GLN22      -0.1245
     36  CA       -10.1820   14.9330   43.8950 C.3    22  GLN22       0.1566
     37  C        -10.7810   16.1740   43.2510 C.2    22  GLN22       0.2260
     38  O        -11.5040   16.0960   42.2510 O.2    22  GLN22      -0.2867
     39  CB        -8.7880   14.5980   43.3040 C.3    22  GLN22       0.0367
     40  CG        -7.6970   15.6720   43.3730 C.3    22  GLN22       0.0905
     41  CD        -7.7650   16.7100   42.2340 C.2    22  GLN22       0.2608
     42  OE1       -8.4040   16.4870   41.1950 O.2    22  GLN22      -0.2717
     43  NE2       -7.0900   17.8510   42.4340 N.am   22  GLN22      -0.0878
     44  N         -9.5950   20.5120   42.6800 N.3    24  ASN24      -0.1225
     45  CA        -8.7410   21.6640   42.9510 C.3    24  ASN24       0.1785
     46  C         -9.2590   22.8670   42.1800 C.2    24  ASN24       0.2597
     47  O         -9.9590   22.7220   41.1620 O.2    24  ASN24      -0.2718
     48  CB        -7.2530   21.3930   42.7230 C.3    24  ASN24       0.1169
     49  CG        -6.8800   21.3050   41.2600 C.2    24  ASN24       0.2627
     50  OD1       -7.2150   20.3360   40.5750 O.2    24  ASN24      -0.2716
     51  ND2       -6.1690   22.3350   40.7740 N.am   24  ASN24      -0.0877
     52  N         -8.9260   24.0540   42.6570 N.am   25  TYR25      -0.1962
     53  CA        -9.5810   25.2420   42.1310 C.3    25  TYR25       0.1771
     54  C         -8.7000   26.4630   42.1840 C.2    25  TYR25       0.2620
     55  O         -7.6360   26.4520   42.8050 O.2    25  TYR25      -0.2715
     56  CB       -10.8760   25.4960   42.9290 C.3    25  TYR25       0.0574
     57  CG       -10.6360   25.7140   44.4060 C.ar   25  TYR25      -0.0198
     58  CD1      -10.4420   27.0060   44.9160 C.ar   25  TYR25      -0.0009
     59  CD2      -10.5960   24.6270   45.3000 C.ar   25  TYR25      -0.0009
     60  CE1      -10.2160   27.2050   46.2860 C.ar   25  TYR25       0.0417
     61  CE2      -10.3680   24.8140   46.6640 C.ar   25  TYR25       0.0417
     62  CZ       -10.1820   26.1060   47.1460 C.ar   25  TYR25       0.1957
     63  OH        -9.9580   26.3090   48.4840 O.3    25  TYR25      -0.2866
     64  N         -9.1560   27.5240   41.5210 N.am   26  SER26      -0.1950
     65  CA        -8.4050   28.7780   41.4630 C.3    26  SER26       0.1924
     66  C         -9.2630   29.9340   41.9900 C.2    26  SER26       0.2314
     67  O         -8.8330   31.0890   41.9720 O.2    26  SER26      -0.2863
     68  CB        -7.9420   29.0430   40.0310 C.3    26  SER26       0.2116
     69  OG        -9.0560   29.1580   39.1680 O.3    26  SER26      -0.2180
     70  N         -3.2600   24.8410   49.2420 N.3    70  ALA70      -0.1245
     71  CA        -3.1170   24.2430   47.9260 C.3    70  ALA70       0.1562
     72  C         -4.3710   24.4250   47.0580 C.2    70  ALA70       0.2260
     73  O         -4.3350   24.1480   45.8550 O.2    70  ALA70      -0.2867
     74  CB        -2.7610   22.7670   48.0580 C.3    70  ALA70       0.0290
     75  N         -7.2360   22.6770   47.3350 N.3    72  HIS72      -0.1241
     76  CA        -7.3400   21.2720   46.9840 C.3    72  HIS72       0.1621
     77  C         -8.2640   20.5550   47.9630 C.2    72  HIS72       0.2264
     78  O         -8.2660   20.8470   49.1720 O.2    72  HIS72      -0.2867
     79  CB        -5.9380   20.6600   47.0740 C.3    72  HIS72       0.0745
     80  CG        -5.8580   19.2390   46.6030 C.ar   72  HIS72       0.0817
     81  ND1       -6.2530   18.1730   47.3800 N.ar   72  HIS72      -0.2268
     82  CD2       -5.4170   18.7100   45.4370 C.ar   72  HIS72       0.1154
     83  CE1       -6.0630   17.0450   46.7130 C.ar   72  HIS72       0.1986
     84  NE2       -5.5570   17.3440   45.5300 N.ar   72  HIS72      -0.2212
@<TRIPOS>BOND
     1     1     2    1
     2     2     5    1
     3     2     3    1
     4     5     6    1
     5     7     6    1
     6     7     8    1
     7     9     8    1
     8     3    10   am
     9     3     4    2
    10    10    11    1
    11    16    14    1
    12    34    32   ar
    13    14    11    1
    14    14    15    1
    15    11    12    1
    16    32    33   ar
    17    32    31    1
    18    13    12    2
    19    12    17   am
    20    31    30    1
    21    17    18    1
    22    30    27    1
    23    22    21    1
    24    22    23    1
    25    18    21    1
    26    18    19    1
    27    27    26    1
    28    27    28    1
    29    23    25   am
    30    23    24    2
    31    19    20    2
    32    28    29    2
    33    69    68    1
    34    68    65    1
    35    50    49    2
    36    51    49   am
    37    47    46    2
    38    42    41    2
    39    49    48    1
    40    65    64    1
    41    65    66    1
    42    64    54   am
    43    67    66    2
    44    53    54    1
    45    53    52    1
    46    53    56    1
    47    46    52   am
    48    46    45    1
    49    54    55    2
    50    41    43   am
    51    41    40    1
    52    38    37    2
    53    44    45    1
    54    48    45    1
    55    56    57    1
    56    37    36    1
    57    39    40    1
    58    39    36    1
    59    35    36    1
    60    57    58   ar
    61    57    59   ar
    62    58    60   ar
    63    59    61   ar
    64    82    84   ar
    65    82    80   ar
    66    84    83   ar
    67    73    72    2
    68    60    62   ar
    69    80    79    1
    70    80    81   ar
    71    61    62   ar
    72    83    81   ar
    73    76    79    1
    74    76    75    1
    75    76    77    1
    76    72    71    1
    77    62    63    1
    78    71    74    1
    79    71    70    1
    80    77    78    2
