@<TRIPOS>MOLECULE
tmp/2q86A00.pdb
 84 80 0 0 0
SMALL
GASTEIGER

@<TRIPOS>ATOM
      1  N        -16.7630  -19.0570   34.4570 N.3     1  LYS1       -0.1231
      2  CA       -16.5540  -17.9560   35.4440 C.3     1  LYS1        0.1693
      3  C        -15.0660  -17.5700   35.5310 C.2     1  LYS1        0.2593
      4  O        -14.2030  -18.3860   35.8400 O.2     1  LYS1       -0.2718
      5  CB       -17.0960  -18.3450   36.8320 C.3     1  LYS1        0.0285
      6  CG       -16.6650  -17.4020   37.9780 C.3     1  LYS1        0.0035
      7  CD       -17.3120  -16.0330   37.8150 C.3     1  LYS1        0.0206
      8  CE       -16.5770  -14.9070   38.5820 C.3     1  LYS1        0.1093
      9  NZ       -17.3610  -13.5980   38.5220 N.3     1  LYS1       -0.1314
     10  N        -14.7750  -16.3160   35.2600 N.am    2  THR2       -0.1939
     11  CA       -13.4010  -15.8310   35.3110 C.3     2  THR2        0.2028
     12  C        -12.7760  -16.0000   36.6970 C.2     2  THR2        0.2642
     13  O        -13.4360  -15.8290   37.7120 O.2     2  THR2       -0.2714
     14  CB       -13.3000  -14.3450   34.8780 C.3     2  THR2        0.1808
     15  OG1      -11.9180  -14.0000   34.7620 O.3     2  THR2       -0.2208
     16  CG2      -13.9350  -13.4250   35.9050 C.3     2  THR2        0.0379
     17  N        -11.4970  -16.3280   36.7300 N.am    3  GLN3       -0.1976
     18  CA       -10.8040  -16.5140   37.9940 C.3     3  GLN3        0.1601
     19  C         -9.9220  -15.3380   38.3880 C.2     3  GLN3        0.2287
     20  O         -9.2500  -15.4020   39.3980 O.2     3  GLN3       -0.2864
     21  CB        -9.9860  -17.8010   37.9360 C.3     3  GLN3        0.0394
     22  CG       -10.8380  -19.0640   37.9220 C.3     3  GLN3        0.0908
     23  CD        -9.9610  -20.2660   38.0580 C.2     3  GLN3        0.2608
     24  OE1       -9.3460  -20.6880   37.0950 O.2     3  GLN3       -0.2717
     25  NE2       -9.8910  -20.8240   39.2600 N.am    3  GLN3       -0.0878
     26  N        -10.1760  -10.9940   38.5690 N.3     5  GLU5       -0.1245
     27  CA       -11.0150   -9.8010   38.4280 C.3     5  GLU5        0.1567
     28  C        -10.2460   -8.5370   38.8160 C.2     5  GLU5        0.2260
     29  O         -9.4610   -8.5480   39.7550 O.2     5  GLU5       -0.2867
     30  CB       -12.3170   -9.9600   39.2370 C.3     5  GLU5        0.0388
     31  CG       -13.2280  -11.0460   38.6160 C.3     5  GLU5        0.1160
     32  CD       -14.4790  -11.3550   39.4230 C.2     5  GLU5        0.3649
     33  OE1      -14.4310  -11.3830   40.6740 O.co2   5  GLU5       -0.2457
     34  OE2      -15.5220  -11.5760   38.7920 O.co2   5  GLU5       -0.2457
     35  N         -6.4540   -2.4840   41.2060 N.3    22  GLN22      -0.1245
     36  CA        -6.6590   -3.6020   42.0910 C.3    22  GLN22       0.1566
     37  C         -6.9230   -4.8610   41.2840 C.2    22  GLN22       0.2260
     38  O         -7.4550   -4.8210   40.1740 O.2    22  GLN22      -0.2867
     39  CB        -7.8270   -3.2840   43.0540 C.3    22  GLN22       0.0367
     40  CG        -8.2440   -4.3790   44.0220 C.3    22  GLN22       0.0905
     41  CD        -9.2150   -5.3730   43.3930 C.2    22  GLN22       0.2608
     42  OE1       -9.7910   -5.1270   42.3260 O.2    22  GLN22      -0.2717
     43  NE2       -9.3950   -6.4970   44.0510 N.am   22  GLN22      -0.0878
     44  N         -7.9720   -9.1860   42.1640 N.3    24  ASN24      -0.1225
     45  CA        -8.1090  -10.3300   43.0500 C.3    24  ASN24       0.1785
     46  C         -8.4930  -11.5860   42.2610 C.2    24  ASN24       0.2597
     47  O         -9.0730  -11.5110   41.1710 O.2    24  ASN24      -0.2718
     48  CB        -9.0140  -10.0880   44.2740 C.3    24  ASN24       0.1169
     49  CG       -10.4710   -9.9440   43.9090 C.2    24  ASN24       0.2627
     50  OD1      -10.8660   -8.9810   43.2280 O.2    24  ASN24      -0.2716
     51  ND2      -11.2880  -10.9140   44.3660 N.am   24  ASN24      -0.0877
     52  N         -8.1660  -12.7440   42.8230 N.am   25  TYR25      -0.1962
     53  CA        -8.2480  -13.9650   42.0530 C.3    25  TYR25       0.1771
     54  C         -8.6950  -15.1570   42.8830 C.2    25  TYR25       0.2620
     55  O         -8.7070  -15.0880   44.1030 O.2    25  TYR25      -0.2715
     56  CB        -6.8930  -14.2270   41.3920 C.3    25  TYR25       0.0574
     57  CG        -5.7340  -14.3770   42.3640 C.ar   25  TYR25      -0.0198
     58  CD1       -5.4130  -15.6260   42.8810 C.ar   25  TYR25      -0.0009
     59  CD2       -4.9590  -13.2650   42.7660 C.ar   25  TYR25      -0.0009
     60  CE1       -4.3550  -15.7920   43.7700 C.ar   25  TYR25       0.0417
     61  CE2       -3.8840  -13.4150   43.6730 C.ar   25  TYR25       0.0417
     62  CZ        -3.5940  -14.6930   44.1650 C.ar   25  TYR25       0.1957
     63  OH        -2.5620  -14.9110   45.0500 O.3    25  TYR25      -0.2866
     64  N         -9.0660  -16.2430   42.2160 N.am   26  SER26      -0.1950
     65  CA        -9.4800  -17.4610   42.9030 C.3    26  SER26       0.1924
     66  C         -8.6300  -18.6360   42.4160 C.2    26  SER26       0.2314
     67  O         -8.8310  -19.7780   42.8430 O.2    26  SER26      -0.2863
     68  CB       -10.9530  -17.7510   42.6230 C.3    26  SER26       0.2116
     69  OG       -11.1510  -17.9690   41.2250 O.3    26  SER26      -0.2180
     70  N         -5.3620  -13.2790   51.0070 N.3    70  ALA70      -0.1245
     71  CA        -6.5820  -12.6890   50.4630 C.3    70  ALA70       0.1562
     72  C         -6.7030  -12.9030   48.9590 C.2    70  ALA70       0.2260
     73  O         -7.7830  -12.6860   48.3910 O.2    70  ALA70      -0.2867
     74  CB        -6.6150  -11.1860   50.7680 C.3    70  ALA70       0.0290
     75  N         -5.0340  -11.1090   46.5760 N.3    72  HIS72      -0.1241
     76  CA        -5.3270   -9.7180   46.2350 C.3    72  HIS72       0.1621
     77  C         -4.0330   -9.0180   45.8930 C.2    72  HIS72       0.2264
     78  O         -3.0220   -9.2380   46.5450 O.2    72  HIS72      -0.2867
     79  CB        -5.9310   -9.0590   47.4820 C.3    72  HIS72       0.0745
     80  CG        -6.3920   -7.6450   47.2980 C.ar   72  HIS72       0.0817
     81  ND1       -5.5300   -6.5660   47.3130 N.ar   72  HIS72      -0.2268
     82  CD2       -7.6340   -7.1310   47.1160 C.ar   72  HIS72       0.1154
     83  CE1       -6.2200   -5.4510   47.1370 C.ar   72  HIS72       0.1986
     84  NE2       -7.4990   -5.7680   47.0170 N.ar   72  HIS72      -0.2212
@<TRIPOS>BOND
     1     1     2    1
     2    15    14    1
     3    14    11    1
     4    14    16    1
     5    10    11    1
     6    10     3   am
     7    11    12    1
     8     2     3    1
     9     2     5    1
    10     3     4    2
    11    12    17   am
    12    12    13    2
    13    17    18    1
    14     5     6    1
    15    24    23    2
    16     7     6    1
    17     7     8    1
    18    22    21    1
    19    22    23    1
    20    21    18    1
    21    18    19    1
    22    23    25   am
    23    19    20    2
    24    27    26    1
    25    27    28    1
    26    27    30    1
    27     9     8    1
    28    31    30    1
    29    31    32    1
    30    34    32   ar
    31    28    29    2
    32    32    33   ar
    33    38    37    2
    34    47    46    2
    35    35    36    1
    36    69    68    1
    37    37    36    1
    38    56    53    1
    39    56    57    1
    40    53    52    1
    41    53    54    1
    42    36    39    1
    43    44    45    1
    44    64    54   am
    45    64    65    1
    46    46    52   am
    47    46    45    1
    48    42    41    2
    49    57    59   ar
    50    57    58   ar
    51    66    67    2
    52    66    65    1
    53    68    65    1
    54    59    61   ar
    55    58    60   ar
    56    54    55    2
    57    45    48    1
    58    39    40    1
    59    50    49    2
    60    41    40    1
    61    41    43   am
    62    61    62   ar
    63    60    62   ar
    64    49    48    1
    65    49    51   am
    66    62    63    1
    67    77    76    1
    68    77    78    2
    69    76    75    1
    70    76    79    1
    71    84    82   ar
    72    84    83   ar
    73    82    80   ar
    74    83    81   ar
    75    80    81   ar
    76    80    79    1
    77    73    72    2
    78    72    71    1
    79    71    74    1
    80    71    70    1
