@<TRIPOS>MOLECULE
tmp/2q89A00.pdb
 113 110 0 0 0
SMALL
GASTEIGER

@<TRIPOS>ATOM
      1  N         26.5850   21.0660   34.8520 N.3    22  GLU22      -0.1245
      2  CA        25.7780   19.8440   34.8890 C.3    22  GLU22       0.1567
      3  C         26.1640   18.9510   33.7050 C.2    22  GLU22       0.2260
      4  O         25.6100   19.0930   32.6120 O.2    22  GLU22      -0.2867
      5  CB        24.2860   20.2030   34.8330 C.3    22  GLU22       0.0388
      6  CG        23.3290   19.0180   34.8540 C.3    22  GLU22       0.1160
      7  CD        21.9020   19.4160   34.5270 C.2    22  GLU22       0.3649
      8  OE1       21.3740   20.3620   35.1600 O.co2  22  GLU22      -0.2457
      9  OE2       21.2980   18.7770   33.6390 O.co2  22  GLU22      -0.2457
     10  N         26.0070   18.3990   29.8140 N.3    25  PHE25      -0.1241
     11  CA        25.6240   19.6650   29.1970 C.3    25  PHE25       0.1605
     12  C         26.7420   20.6920   29.3800 C.2    25  PHE25       0.2264
     13  O         27.2060   21.2960   28.4100 O.2    25  PHE25      -0.2867
     14  CB        24.3050   20.1860   29.7860 C.3    25  PHE25       0.0534
     15  CG        23.0910   19.4120   29.3410 C.ar   25  PHE25      -0.0203
     16  CD1       22.6940   18.2620   30.0140 C.ar   25  PHE25      -0.0042
     17  CD2       22.3550   19.8250   28.2390 C.ar   25  PHE25      -0.0042
     18  CE1       21.5770   17.5400   29.5970 C.ar   25  PHE25      -0.0003
     19  CE2       21.2390   19.1140   27.8200 C.ar   25  PHE25      -0.0003
     20  CZ        20.8490   17.9690   28.5010 C.ar   25  PHE25      -0.0000
     21  N         19.8620   27.7460   37.1150 N.3    61  TYR61      -0.1241
     22  CA        19.1180   27.9180   35.8700 C.3    61  TYR61       0.1605
     23  C         18.1530   29.1020   35.8740 C.2    61  TYR61       0.2264
     24  O         17.9450   29.7270   34.8370 O.2    61  TYR61      -0.2867
     25  CB        18.3890   26.6230   35.4870 C.3    61  TYR61       0.0534
     26  CG        19.3270   25.5320   35.0210 C.ar   61  TYR61      -0.0201
     27  CD1       19.7920   25.5030   33.7050 C.ar   61  TYR61      -0.0009
     28  CD2       19.7640   24.5400   35.8970 C.ar   61  TYR61      -0.0009
     29  CE1       20.6660   24.5080   33.2700 C.ar   61  TYR61       0.0417
     30  CE2       20.6350   23.5440   35.4740 C.ar   61  TYR61       0.0417
     31  CZ        21.0820   23.5340   34.1590 C.ar   61  TYR61       0.1957
     32  OH        21.9410   22.5510   33.7310 O.3    61  TYR61      -0.2866
     33  N         23.9630   26.3860   28.1090 N.3    78  ALA78      -0.1231
     34  CA        23.9200   25.6150   29.3460 C.3    78  ALA78       0.1694
     35  C         22.9350   24.4490   29.3300 C.2    78  ALA78       0.2593
     36  O         22.7380   23.7870   30.3460 O.2    78  ALA78      -0.2718
     37  CB        23.6120   26.5570   30.5140 C.3    78  ALA78       0.0304
     38  N         22.3250   24.1960   28.1760 N.am   79  GLY79      -0.1942
     39  CA        21.2310   23.2370   28.0840 C.3    79  GLY79       0.2014
     40  C         19.8980   23.8520   28.4760 C.2    79  GLY79       0.2639
     41  O         18.9770   23.1390   28.8800 O.2    79  GLY79      -0.2714
     42  N         19.7890   25.1770   28.3560 N.am   80  LEU80      -0.1963
     43  CA        18.5540   25.8830   28.7110 C.3    80  LEU80       0.1728
     44  C         17.4690   25.6160   27.6650 C.2    80  LEU80       0.2616
     45  O         17.4100   26.2760   26.6130 O.2    80  LEU80      -0.2715
     46  CB        18.7980   27.3900   28.8960 C.3    80  LEU80       0.0311
     47  CG        17.6530   28.1830   29.5420 C.3    80  LEU80       0.0022
     48  CD1       17.5980   27.9570   31.0550 C.3    80  LEU80       0.0001
     49  CD2       17.7800   29.6650   29.2390 C.3    80  LEU80       0.0001
     50  N         16.6200   24.6360   27.9680 N.am   81  PHE81      -0.1974
     51  CA        15.6400   24.1340   27.0150 C.3    81  PHE81       0.1639
     52  C         14.6540   25.1930   26.5350 C.2    81  PHE81       0.2290
     53  O         14.2220   26.0480   27.3120 O.2    81  PHE81      -0.2864
     54  CB        14.8910   22.9390   27.6000 C.3    81  PHE81       0.0560
     55  CG        15.7660   21.7440   27.8720 C.ar   81  PHE81      -0.0200
     56  CD1       16.7200   21.3300   26.9370 C.ar   81  PHE81      -0.0042
     57  CD2       15.6190   21.0120   29.0510 C.ar   81  PHE81      -0.0042
     58  CE1       17.5220   20.2170   27.1800 C.ar   81  PHE81      -0.0003
     59  CE2       16.4250   19.8930   29.3050 C.ar   81  PHE81      -0.0003
     60  CZ        17.3680   19.4950   28.3700 C.ar   81  PHE81      -0.0000
     61  N         10.1550   31.1050   27.7190 N.3    86  ARG86      -0.1245
     62  CA        11.5750   31.4340   27.5920 C.3    86  ARG86       0.1563
     63  C         11.8620   32.0690   26.2320 C.2    86  ARG86       0.2260
     64  O         12.6200   33.0330   26.1410 O.2    86  ARG86      -0.2867
     65  CB        12.4460   30.1850   27.7640 C.3    86  ARG86       0.0307
     66  CG        12.5140   29.6400   29.1790 C.3    86  ARG86       0.0489
     67  CD        13.4580   28.4610   29.3210 C.3    86  ARG86       0.2205
     68  NE        13.5610   27.9970   30.7010 N.pl3  86  ARG86      -0.0865
     69  CZ        14.1350   26.8570   31.0760 C.cat  86  ARG86       0.5346
     70  NH1       14.6630   26.0370   30.1720 N.pl3  86  ARG86       0.1354
     71  NH2       14.1800   26.5340   32.3640 N.pl3  86  ARG86       0.1354
     72  N         16.4850   21.5130   39.9750 N.3   130  PRO130     -0.2116
     73  CA        17.1630   22.8170   39.8690 C.3   130  PRO130      0.1372
     74  C         16.1550   23.9660   39.9190 C.2   130  PRO130      0.2244
     75  O         15.0420   23.8210   39.4180 O.2   130  PRO130     -0.2868
     76  CB        17.8180   22.7710   38.4880 C.3   130  PRO130      0.0268
     77  CG        17.8150   21.3500   38.0860 C.3   130  PRO130      0.0207
     78  CD        16.6600   20.6990   38.7590 C.3   130  PRO130      0.0892
     79  N         14.2710   25.6560   36.6200 N.3   133  GLY133     -0.1210
     80  CA        14.4430   24.7070   35.5200 C.3   133  GLY133      0.1956
     81  C         13.1670   24.0110   35.0680 C.2   133  GLY133      0.2613
     82  O         12.0860   24.2530   35.6170 O.2   133  GLY133     -0.2717
     83  N         13.3000   23.1360   34.0710 N.am  134  THR134     -0.1938
     84  CA        12.1390   22.4910   33.4450 C.3   134  THR134      0.2028
     85  C         11.4320   21.4980   34.3620 C.2   134  THR134      0.2642
     86  O         10.2030   21.4590   34.3850 O.2   134  THR134     -0.2714
     87  CB        12.5140   21.8020   32.1040 C.3   134  THR134      0.1808
     88  OG1       13.7120   21.0270   32.2660 O.3   134  THR134     -0.2208
     89  CG2       12.8760   22.8350   31.0490 C.3   134  THR134      0.0379
     90  N         12.2130   20.7170   35.1120 N.am  135  GLU135     -0.1976
     91  CA        11.6940   19.6570   35.9890 C.3   135  GLU135      0.1602
     92  C         10.8600   20.2180   37.1330 C.2   135  GLU135      0.2287
     93  O          9.8260   19.6500   37.4890 O.2   135  GLU135     -0.2864
     94  CB        12.8360   18.8180   36.5780 C.3   135  GLU135      0.0415
     95  CG        13.7740   18.1870   35.5620 C.3   135  GLU135      0.1163
     96  CD        14.9130   19.1010   35.1470 C.2   135  GLU135      0.3649
     97  OE1       15.1550   20.1200   35.8280 O.co2 135  GLU135     -0.2457
     98  OE2       15.5720   18.7990   34.1290 O.co2 135  GLU135     -0.2457
     99  N         16.6570   15.3590   36.7110 N.3   172  LEU172     -0.1231
    100  CA        17.4030   16.1170   35.7020 C.3   172  LEU172      0.1678
    101  C         17.1340   15.4660   34.3410 C.2   172  LEU172      0.2434
    102  O         16.3840   14.4940   34.2810 O.2   172  LEU172     -0.2733
    103  CB        18.9100   16.1100   36.0140 C.3   172  LEU172      0.0284
    104  CG        19.4770   16.8380   37.2400 C.3   172  LEU172      0.0019
    105  CD1       20.9900   16.6270   37.3480 C.3   172  LEU172      0.0001
    106  CD2       19.1540   18.3160   37.2020 C.3   172  LEU172      0.0001
    107  N         17.7090   15.9870   33.2510 N.am  173  PRO173     -0.2729
    108  CA        17.6760   15.2700   31.9750 C.3   173  PRO173      0.1401
    109  C         18.3850   13.9180   32.0700 C.2   173  PRO173      0.2269
    110  O         19.3110   13.7560   32.8680 O.2   173  PRO173     -0.2865
    111  CB        18.4470   16.1960   31.0210 C.3   173  PRO173      0.0296
    112  CG        18.3880   17.5420   31.6500 C.3   173  PRO173      0.0237
    113  CD        18.3980   17.2880   33.1270 C.3   173  PRO173      0.0939
@<TRIPOS>BOND
     1    64    63    2
     2    63    62    1
     3    52    51    1
     4    52    53    2
     5    45    44    2
     6    56    58   ar
     7    56    55   ar
     8    51    54    1
     9    51    50    1
    10    58    60   ar
    11    62    61    1
    12    62    65    1
    13    54    55    1
    14    44    50   am
    15    44    43    1
    16    65    66    1
    17    19    17   ar
    18    19    20   ar
    19    55    57   ar
    20    39    38    1
    21    39    40    1
    22    33    34    1
    23    38    35   am
    24    17    15   ar
    25    42    40   am
    26    42    43    1
    27    60    59   ar
    28    13    12    2
    29    40    41    2
    30    20    18   ar
    31    43    46    1
    32    46    47    1
    33    57    59   ar
    34    66    67    1
    35    11    12    1
    36    11    14    1
    37    11    10    1
    38    49    47    1
    39    67    68    1
    40    35    34    1
    41    35    36    2
    42    15    14    1
    43    15    16   ar
    44    34    37    1
    45    47    48    1
    46    18    16   ar
    47    70    69    1
    48    68    69    2
    49   111   112    1
    50   111   108    1
    51    89    87    1
    52    69    71    1
    53   112   113    1
    54   108   109    1
    55   108   107    1
    56   109   110    2
    57    87    88    1
    58    87    84    1
    59     4     3    2
    60   113   107    1
    61   107   101   am
    62    29    27   ar
    63    29    31   ar
    64    84    83    1
    65    84    85    1
    66     9     7   ar
    67     3     2    1
    68    27    26   ar
    69    32    31    1
    70    83    81   am
    71    98    96   ar
    72    31    30   ar
    73   102   101    2
    74   101   100    1
    75    85    86    2
    76    85    90   am
    77     7     6    1
    78     7     8   ar
    79     5     6    1
    80     5     2    1
    81    24    23    2
    82     1     2    1
    83    26    25    1
    84    26    28   ar
    85    81    80    1
    86    81    82    2
    87    90    91    1
    88    96    95    1
    89    96    97   ar
    90    30    28   ar
    91    25    22    1
    92    80    79    1
    93    95    94    1
    94   100   103    1
    95   100    99    1
    96    22    23    1
    97    22    21    1
    98    91    94    1
    99    91    92    1
   100   103   104    1
   101    92    93    2
   102   106   104    1
   103   104   105    1
   104    77    76    1
   105    77    78    1
   106    76    73    1
   107    78    72    1
   108    75    74    2
   109    73    74    1
   110    73    72    1
