@<TRIPOS>MOLECULE
tmp/2q8dB00.pdb
 197 188 0 0 0
SMALL
GASTEIGER

@<TRIPOS>ATOM
      1  N         -2.3070  -12.7980    2.1220 N.3   127  ASP127     -0.1239
      2  CA        -2.9760  -11.5990    2.6530 C.3   127  ASP127      0.1674
      3  C         -2.4760  -10.3020    2.0290 C.2   127  ASP127      0.2266
      4  O         -2.2840   -9.3060    2.7330 O.2   127  ASP127     -0.2867
      5  CB        -2.8510  -11.5000    4.1900 C.3   127  ASP127      0.1410
      6  CG        -3.1090  -12.8270    4.9020 C.2   127  ASP127      0.3668
      7  OD1       -4.1140  -13.5100    4.6040 O.co2 127  ASP127     -0.2456
      8  OD2       -2.2950  -13.1730    5.7950 O.co2 127  ASP127     -0.2456
      9  N        -21.7250   -2.7340    6.5780 N.3   152  VAL152     -0.1245
     10  CA       -20.6090   -2.4480    7.4800 C.3   152  VAL152      0.1561
     11  C        -19.8340   -1.2230    6.9830 C.2   152  VAL152      0.2260
     12  O        -19.3600   -0.4200    7.7850 O.2   152  VAL152     -0.2867
     13  CB       -19.6500   -3.6620    7.6350 C.3   152  VAL152      0.0252
     14  CG1      -18.5430   -3.3500    8.6190 C.3   152  VAL152      0.0019
     15  CG2      -20.4150   -4.9030    8.0940 C.3   152  VAL152      0.0019
     16  N        -21.6330    1.9690    8.5910 N.3   156  SER156     -0.1217
     17  CA       -20.6600    2.1250    9.6800 C.3   156  SER156      0.1889
     18  C        -19.4400    2.9560    9.2540 C.2   156  SER156      0.2288
     19  O        -18.7990    3.6110   10.0860 O.2   156  SER156     -0.2866
     20  CB       -20.2130    0.7580   10.2210 C.3   156  SER156      0.2089
     21  OG       -21.3150   -0.0830   10.5380 O.3   156  SER156     -0.2183
     22  N        -16.6650    1.6320    7.8300 N.3   158  ILE158     -0.1231
     23  CA       -15.5600    0.8440    8.3920 C.3   158  ILE158      0.1692
     24  C        -15.0130   -0.1830    7.3890 C.2   158  ILE158      0.2593
     25  O        -15.7620   -0.9810    6.8170 O.2   158  ILE158     -0.2718
     26  CB       -15.9610    0.1820    9.7600 C.3   158  ILE158      0.0266
     27  CG1      -16.0850    1.2610   10.8520 C.3   158  ILE158      0.0019
     28  CG2      -14.9570   -0.8940   10.1800 C.3   158  ILE158      0.0020
     29  CD1      -16.7800    0.8080   12.1370 C.3   158  ILE158      0.0001
     30  N        -13.6980   -0.1290    7.1840 N.am  159  THR159     -0.1939
     31  CA       -12.9810   -1.0300    6.2820 C.3   159  THR159      0.2028
     32  C        -12.2680   -2.1420    7.0660 C.2   159  THR159      0.2642
     33  O        -11.4150   -1.8730    7.9200 O.2   159  THR159     -0.2714
     34  CB       -11.9880   -0.2430    5.3460 C.3   159  THR159      0.1808
     35  OG1      -11.1330   -1.1550    4.6440 O.3   159  THR159     -0.2208
     36  CG2      -11.1250    0.7320    6.1380 C.3   159  THR159      0.0379
     37  N        -12.6530   -3.3840    6.7930 N.am  160  ILE160     -0.1963
     38  CA       -11.9610   -4.5480    7.3410 C.3   160  ILE160      0.1727
     39  C        -11.2130   -5.2160    6.2070 C.2   160  ILE160      0.2616
     40  O        -11.8110   -5.9630    5.4200 O.2   160  ILE160     -0.2715
     41  CB       -12.9160   -5.6290    7.9360 C.3   160  ILE160      0.0290
     42  CG1      -14.2790   -5.0490    8.3730 C.3   160  ILE160      0.0022
     43  CG2      -12.1810   -6.4410    9.0120 C.3   160  ILE160      0.0023
     44  CD1      -14.4290   -4.7710    9.8580 C.3   160  ILE160      0.0001
     45  N         -9.9100   -4.9680    6.1350 N.am  161  GLU161     -0.1963
     46  CA        -9.0950   -5.4780    5.0270 C.3   161  GLU161      0.1733
     47  C         -9.1240   -7.0120    4.9080 C.2   161  GLU161      0.2617
     48  O         -8.8750   -7.7270    5.8860 O.2   161  GLU161     -0.2715
     49  CB        -7.6730   -4.9130    5.0930 C.3   161  GLU161      0.0429
     50  CG        -7.6260   -3.3870    4.8980 C.3   161  GLU161      0.1163
     51  CD        -6.2130   -2.8400    4.8170 C.2   161  GLU161      0.3649
     52  OE1       -5.2790   -3.5620    5.2380 O.co2 161  GLU161     -0.2457
     53  OE2       -6.0330   -1.6860    4.3440 O.co2 161  GLU161     -0.2457
     54  N         -9.4720   -7.4990    3.7160 N.am  162  GLY162     -0.1940
     55  CA        -9.6680   -8.9350    3.4740 C.3   162  GLY162      0.2014
     56  C        -11.0750   -9.4500    3.7940 C.2   162  GLY162      0.2638
     57  O        -11.4720  -10.5320    3.3490 O.2   162  GLY162     -0.2714
     58  N        -11.8280   -8.6760    4.5720 N.am  163  VAL163     -0.1977
     59  CA       -13.1990   -9.0330    4.9280 C.3   163  VAL163      0.1596
     60  C        -14.1800   -8.3550    3.9670 C.2   163  VAL163      0.2287
     61  O        -14.8860   -9.0580    3.2380 O.2   163  VAL163     -0.2864
     62  CB       -13.5000   -8.7660    6.4320 C.3   163  VAL163      0.0276
     63  CG1      -14.9600   -9.0400    6.7630 C.3   163  VAL163      0.0022
     64  CG2      -12.5820   -9.6200    7.3160 C.3   163  VAL163      0.0022
     65  N         -8.2670   -9.6030   -0.9590 N.3   167  TYR167     -0.1241
     66  CA        -6.9040  -10.0310   -0.6470 C.3   167  TYR167      0.1605
     67  C         -6.3750  -10.9360   -1.7660 C.2   167  TYR167      0.2264
     68  O         -7.1300  -11.7070   -2.3740 O.2   167  TYR167     -0.2867
     69  CB        -6.8870  -10.8690    0.6360 C.3   167  TYR167      0.0534
     70  CG        -6.5800  -10.1740    1.9560 C.ar  167  TYR167     -0.0201
     71  CD1       -6.6830  -10.8920    3.1460 C.ar  167  TYR167     -0.0009
     72  CD2       -6.1780   -8.8340    2.0260 C.ar  167  TYR167     -0.0009
     73  CE1       -6.4050  -10.3150    4.3740 C.ar  167  TYR167      0.0417
     74  CE2       -5.8920   -8.2310    3.2580 C.ar  167  TYR167      0.0417
     75  CZ        -6.0090   -8.9840    4.4280 C.ar  167  TYR167      0.1957
     76  OH        -5.7410   -8.4540    5.6690 O.3   167  TYR167     -0.2866
     77  N         -3.5330  -13.9740   -2.8530 N.3   169  TYR169     -0.1241
     78  CA        -2.7800  -15.0730   -2.2790 C.3   169  TYR169      0.1605
     79  C         -1.8730  -15.6830   -3.3420 C.2   169  TYR169      0.2264
     80  O         -2.3490  -16.3730   -4.2400 O.2   169  TYR169     -0.2867
     81  CB        -3.7300  -16.1410   -1.7060 C.3   169  TYR169      0.0534
     82  CG        -4.4410  -15.6980   -0.4460 C.ar  169  TYR169     -0.0201
     83  CD1       -5.6620  -15.0020   -0.5120 C.ar  169  TYR169     -0.0009
     84  CD2       -3.8850  -15.9530    0.8120 C.ar  169  TYR169     -0.0009
     85  CE1       -6.3000  -14.5550    0.6570 C.ar  169  TYR169      0.0417
     86  CE2       -4.5200  -15.5220    1.9900 C.ar  169  TYR169      0.0417
     87  CZ        -5.7190  -14.8300    1.9040 C.ar  169  TYR169      0.1957
     88  OH        -6.3260  -14.4120    3.0620 O.3   169  TYR169     -0.2866
     89  N        -10.4350  -23.5200    9.6120 N.3   180  HIS180     -0.1241
     90  CA       -11.1000  -22.3260   10.1170 C.3   180  HIS180      0.1621
     91  C        -12.4260  -22.1680    9.4310 C.2   180  HIS180      0.2264
     92  O        -12.6260  -22.6590    8.3310 O.2   180  HIS180     -0.2867
     93  CB       -10.2390  -21.0510    9.8600 C.3   180  HIS180      0.0745
     94  CG       -10.1120  -20.6930    8.4060 C.ar  180  HIS180      0.0817
     95  ND1       -9.3130  -21.4010    7.5260 N.ar  180  HIS180     -0.2268
     96  CD2      -10.7110  -19.7260    7.6700 C.ar  180  HIS180      0.1154
     97  CE1       -9.4310  -20.8890    6.3140 C.ar  180  HIS180      0.1986
     98  NE2      -10.2740  -19.8680    6.3730 N.ar  180  HIS180     -0.2212
     99  N        -14.8510  -18.6150    8.3870 N.3   182  GLU182     -0.1231
    100  CA       -14.6050  -17.2040    8.1210 C.3   182  GLU182      0.1699
    101  C        -14.7750  -16.3570    9.3790 C.2   182  GLU182      0.2592
    102  O        -15.4660  -16.7720   10.3210 O.2   182  GLU182     -0.2718
    103  CB       -15.5360  -16.7000    7.0060 C.3   182  GLU182      0.0402
    104  CG       -15.2740  -17.3330    5.6600 C.3   182  GLU182      0.1161
    105  CD       -13.7920  -17.4140    5.3470 C.2   182  GLU182      0.3649
    106  OE1      -13.2440  -18.5410    5.3280 O.co2 182  GLU182     -0.2457
    107  OE2      -13.1540  -16.3590    5.1500 O.co2 182  GLU182     -0.2457
    108  N        -14.1560  -15.1710    9.4020 N.am  183  ASP183     -0.1974
    109  CA       -14.4390  -14.2080   10.4620 C.3   183  ASP183      0.1709
    110  C        -15.9610  -14.0030   10.5240 C.2   183  ASP183      0.2293
    111  O        -16.6000  -13.8860    9.4850 O.2   183  ASP183     -0.2864
    112  CB       -13.7500  -12.8680   10.1810 C.3   183  ASP183      0.1436
    113  CG       -12.2390  -12.9370   10.3670 C.2   183  ASP183      0.3671
    114  OD1      -11.7880  -13.1370   11.5200 O.co2 183  ASP183     -0.2456
    115  OD2      -11.5020  -12.7940    9.3660 O.co2 183  ASP183     -0.2456
    116  N        -17.1930  -16.8030    2.2500 N.3   188  SER188     -0.1217
    117  CA       -16.1300  -16.2450    1.4200 C.3   188  SER188      0.1889
    118  C        -16.2600  -16.7190   -0.0180 C.2   188  SER188      0.2288
    119  O        -16.9600  -17.6910   -0.3270 O.2   188  SER188     -0.2866
    120  CB       -14.7320  -16.5810    1.9650 C.3   188  SER188      0.2089
    121  OG       -14.5560  -17.9840    2.0340 O.3   188  SER188     -0.2183
    122  N         -5.8460  -19.7030   13.0310 N.3   233  LYS233     -0.1245
    123  CA        -5.4360  -20.2880   11.7470 C.3   233  LYS233      0.1561
    124  C         -4.0320  -20.9300   11.7890 C.2   233  LYS233      0.2260
    125  O         -3.2410  -20.8280   10.8310 O.2   233  LYS233     -0.2867
    126  CB        -5.5280  -19.2460   10.6310 C.3   233  LYS233      0.0271
    127  CG        -6.9340  -18.7660   10.3120 C.3   233  LYS233      0.0035
    128  CD        -6.8890  -17.7400    9.1960 C.3   233  LYS233      0.0206
    129  CE        -8.2900  -17.3990    8.6940 C.3   233  LYS233      0.1093
    130  NZ        -8.7580  -16.0280    9.1210 N.3   233  LYS233     -0.1314
    131  N         -9.5220  -13.4200   -2.7750 N.3   280  SER280     -0.1202
    132  CA       -10.6890  -13.7020   -1.9360 C.3   280  SER280      0.2020
    133  C        -11.1590  -12.5210   -1.1100 C.2   280  SER280      0.2619
    134  O        -10.4890  -11.4990   -1.0160 O.2   280  SER280     -0.2717
    135  CB       -10.4740  -14.9380   -1.0470 C.3   280  SER280      0.2103
    136  OG        -9.1760  -14.9300   -0.4850 O.3   280  SER280     -0.2182
    137  N        -12.3580  -12.6670   -0.5700 N.am  281  THR281     -0.1938
    138  CA       -12.9850  -11.7000    0.3200 C.3   281  THR281      0.2028
    139  C        -14.1550  -12.4130    0.9870 C.2   281  THR281      0.2642
    140  O        -14.4480  -13.5690    0.6850 O.2   281  THR281     -0.2714
    141  CB       -13.4780  -10.4140   -0.4240 C.3   281  THR281      0.1808
    142  OG1      -13.6060   -9.3420    0.5070 O.3   281  THR281     -0.2208
    143  CG2      -14.8120  -10.6250   -1.1230 C.3   281  THR281      0.0379
    144  N        -14.8210  -11.7180    1.8980 N.am  282  ASN282     -0.1971
    145  CA       -15.9820  -12.2610    2.5590 C.3   282  ASN282      0.1688
    146  C        -17.2140  -11.6220    1.9700 C.2   282  ASN282      0.2292
    147  O        -17.1190  -10.6570    1.2190 O.2   282  ASN282     -0.2864
    148  CB       -15.8890  -12.0110    4.0560 C.3   282  ASN282      0.1181
    149  CG       -14.8490  -12.8670    4.7070 C.2   282  ASN282      0.2629
    150  OD1      -13.8490  -12.2510    5.2970 O.2   282  ASN282     -0.2716
    151  ND2      -14.9560  -14.0840    4.6960 N.am  282  ASN282     -0.0877
    152  N         -6.1040   -7.6120   17.1820 N.3   303  ASP303     -0.1225
    153  CA        -6.5020   -7.2150   15.8250 C.3   303  ASP303      0.1805
    154  C         -7.6290   -8.0730   15.2260 C.2   303  ASP303      0.2598
    155  O         -7.9030   -7.9830   14.0220 O.2   303  ASP303     -0.2718
    156  CB        -5.2820   -7.2170   14.8810 C.3   303  ASP303      0.1424
    157  CG        -4.5160   -5.8870   14.8780 C.2   303  ASP303      0.3668
    158  OD1       -4.1290   -5.4520   13.7660 O.co2 303  ASP303     -0.2456
    159  OD2       -4.2890   -5.2840   15.9650 O.co2 303  ASP303     -0.2456
    160  N         -8.2770   -8.8950   16.0540 N.am  304  MET304     -0.1965
    161  CA        -9.2860   -9.8450   15.5680 C.3   304  MET304      0.1736
    162  C        -10.5190   -9.1430   14.9940 C.2   304  MET304      0.2616
    163  O        -10.9950   -8.1540   15.5600 O.2   304  MET304     -0.2715
    164  CB        -9.6960  -10.8440   16.6630 C.3   304  MET304      0.0427
    165  CG        -8.5890  -11.8170   17.1070 C.3   304  MET304      0.0599
    166  SD        -7.6960  -12.7730   15.8280 S.3   304  MET304     -0.1393
    167  CE        -8.9370  -13.9620   15.2640 C.3   304  MET304      0.0692
    168  N        -11.0140   -9.6610   13.8670 N.am  305  VAL305     -0.1963
    169  CA       -12.2070   -9.1230   13.2040 C.3   305  VAL305      0.1727
    170  C        -13.4720   -9.3060   14.0470 C.2   305  VAL305      0.2616
    171  O        -13.8210  -10.4190   14.4610 O.2   305  VAL305     -0.2715
    172  CB       -12.4070   -9.7170   11.7920 C.3   305  VAL305      0.0290
    173  CG1      -13.7060   -9.2110   11.1540 C.3   305  VAL305      0.0023
    174  CG2      -11.2170   -9.3890   10.9140 C.3   305  VAL305      0.0023
    175  N        -14.1370   -8.1850   14.3030 N.am  306  LYS306     -0.1963
    176  CA       -15.3670   -8.1490   15.0690 C.3   306  LYS306      0.1728
    177  C        -16.3220   -7.2070   14.3440 C.2   306  LYS306      0.2616
    178  O        -16.0080   -6.0400   14.1130 O.2   306  LYS306     -0.2715
    179  CB       -15.0980   -7.6600   16.5020 C.3   306  LYS306      0.0311
    180  CG       -16.2480   -7.8840   17.4500 C.3   306  LYS306      0.0038
    181  CD       -16.1540   -6.9640   18.6670 C.3   306  LYS306      0.0206
    182  CE       -17.5050   -6.8580   19.3990 C.3   306  LYS306      0.1093
    183  NZ       -18.6580   -6.6450   18.4460 N.3   306  LYS306     -0.1314
    184  N        -17.4790   -7.7320   13.9600 N.am  307  ILE307     -0.1963
    185  CA       -18.5170   -6.9380   13.3240 C.3   307  ILE307      0.1727
    186  C        -19.6920   -6.8340   14.2970 C.2   307  ILE307      0.2616
    187  O        -20.1250   -7.8300   14.8760 O.2   307  ILE307     -0.2715
    188  CB       -18.9200   -7.5340   11.9390 C.3   307  ILE307      0.0290
    189  CG1      -17.7600   -7.3650   10.9520 C.3   307  ILE307      0.0022
    190  CG2      -20.1900   -6.8690   11.3960 C.3   307  ILE307      0.0023
    191  CD1      -17.8490   -8.1670    9.6780 C.3   307  ILE307      0.0001
    192  N        -20.1660   -5.6180   14.5140 N.am  308  SER308     -0.1950
    193  CA       -21.3660   -5.4000   15.3040 C.3   308  SER308      0.1924
    194  C        -22.5780   -5.8860   14.5070 C.2   308  SER308      0.2314
    195  O        -22.7680   -5.4770   13.3550 O.2   308  SER308     -0.2863
    196  CB       -21.5110   -3.9130   15.6450 C.3   308  SER308      0.2116
    197  OG       -22.8370   -3.6120   16.0370 O.3   308  SER308     -0.2180
@<TRIPOS>BOND
     1    80    79    2
     2    79    78    1
     3    77    78    1
     4   131   132    1
     5    68    67    2
     6    78    81    1
     7   132   133    1
     8   132   135    1
     9    67    66    1
    10    81    82    1
    11   143   141    1
    12   133   134    2
    13   133   137   am
    14   135   136    1
    15    65    66    1
    16    66    69    1
    17   137   138    1
    18    83    82   ar
    19    83    85   ar
    20    82    84   ar
    21   141   138    1
    22   141   142    1
    23   119   118    2
    24   118   117    1
    25   138   139    1
    26    69    70    1
    27    85    87   ar
    28   140   139    2
    29    84    86   ar
    30   139   144   am
    31   147   146    2
    32   117   120    1
    33   117   116    1
    34   144   145    1
    35    87    86   ar
    36    87    88    1
    37    70    72   ar
    38    70    71   ar
    39   120   121    1
    40   146   145    1
    41    72    74   ar
    42     3     2    1
    43     3     4    2
    44     1     2    1
    45   145   148    1
    46     2     5    1
    47    71    73   ar
    48    61    60    2
    49    74    75   ar
    50    57    56    2
    51    55    54    1
    52    55    56    1
    53    54    47   am
    54    56    58   am
    55    60    59    1
    56   148   149    1
    57     5     6    1
    58    53    51   ar
    59    73    75   ar
    60    75    76    1
    61    58    59    1
    62     7     6   ar
    63    35    34    1
    64   151   149   am
    65   149   150    2
    66    51    50    1
    67    51    52   ar
    68    50    49    1
    69     6     8   ar
    70    47    46    1
    71    47    48    2
    72    59    62    1
    73    46    49    1
    74    46    45    1
    75   107   105   ar
    76   106   105   ar
    77    34    36    1
    78    34    31    1
    79   105   104    1
    80    40    39    2
    81   104   103    1
    82    45    39   am
    83    39    38    1
    84    31    32    1
    85    31    30    1
    86    97    98   ar
    87    97    95   ar
    88    98    96   ar
    89    62    63    1
    90    62    64    1
    91     9    10    1
    92    37    32   am
    93    37    38    1
    94    25    24    2
    95    11    10    1
    96    11    12    2
    97   103   100    1
    98    32    33    2
    99    30    24   am
   100    38    41    1
   101    24    23    1
   102    10    13    1
   103    95    94   ar
   104    13    15    1
   105    13    14    1
   106    96    94   ar
   107    22    23    1
   108    41    42    1
   109    41    43    1
   110   100    99    1
   111   100   101    1
   112    92    91    2
   113    42    44    1
   114    23    26    1
   115    94    93    1
   116    16    17    1
   117   129   130    1
   118   129   128    1
   119   128   127    1
   120    18    17    1
   121    18    19    2
   122   115   113   ar
   123   101   108   am
   124   101   102    2
   125   108   109    1
   126    91    90    1
   127   111   110    2
   128    89    90    1
   129   191   189    1
   130    17    20    1
   131    26    28    1
   132    26    27    1
   133    93    90    1
   134   112   113    1
   135   112   109    1
   136    20    21    1
   137   127   126    1
   138   113   114   ar
   139   109   110    1
   140   126   123    1
   141   125   124    2
   142    27    29    1
   143   174   172    1
   144   189   188    1
   145   173   172    1
   146   190   188    1
   147   123   124    1
   148   123   122    1
   149   172   169    1
   150   188   185    1
   151   169   168    1
   152   169   170    1
   153   185   184    1
   154   185   186    1
   155   195   194    2
   156   158   157   ar
   157   168   162   am
   158   184   177   am
   159   155   154    2
   160   170   175   am
   161   170   171    2
   162   178   177    2
   163   186   192   am
   164   186   187    2
   165   175   176    1
   166   177   176    1
   167   194   193    1
   168   192   193    1
   169   157   156    1
   170   157   159   ar
   171   156   153    1
   172   162   163    2
   173   162   161    1
   174   176   179    1
   175   154   153    1
   176   154   160   am
   177   167   166    1
   178   193   196    1
   179   161   160    1
   180   161   164    1
   181   196   197    1
   182   153   152    1
   183   166   165    1
   184   179   180    1
   185   164   165    1
   186   180   181    1
   187   183   182    1
   188   181   182    1
