@<TRIPOS>MOLECULE
tmp/2q8dA00.pdb
 160 153 0 0 0
SMALL
GASTEIGER

@<TRIPOS>ATOM
      1  N        -29.3230  -59.3680  -24.5020 N.3   135  ASP135     -0.1239
      2  CA       -28.6690  -60.6640  -24.1890 C.3   135  ASP135      0.1674
      3  C        -29.0990  -61.8380  -25.0540 C.2   135  ASP135      0.2266
      4  O        -29.3440  -62.9340  -24.5390 O.2   135  ASP135     -0.2867
      5  CB       -28.8790  -61.0600  -22.7210 C.3   135  ASP135      0.1410
      6  CG       -28.4630  -59.9740  -21.7440 C.2   135  ASP135      0.3668
      7  OD1      -27.7930  -59.0040  -22.1350 O.co2 135  ASP135     -0.2456
      8  OD2      -28.8240  -60.1010  -20.5630 O.co2 135  ASP135     -0.2456
      9  N        -15.1900  -74.0000  -19.6640 N.3   166  ILE166     -0.1231
     10  CA       -16.2520  -73.1080  -19.2300 C.3   166  ILE166      0.1692
     11  C        -16.5470  -71.9930  -20.2340 C.2   166  ILE166      0.2593
     12  O        -15.6850  -71.1700  -20.5760 O.2   166  ILE166     -0.2718
     13  CB       -16.0180  -72.5460  -17.8070 C.3   166  ILE166      0.0266
     14  CG1      -16.0440  -73.6790  -16.7750 C.3   166  ILE166      0.0019
     15  CG2      -17.0900  -71.5230  -17.4540 C.3   166  ILE166      0.0020
     16  CD1      -15.5140  -73.2840  -15.4100 C.3   166  ILE166      0.0001
     17  N        -17.7960  -72.0130  -20.6920 N.am  167  THR167     -0.1939
     18  CA       -18.4050  -70.9650  -21.4980 C.3   167  THR167      0.2028
     19  C        -19.2390  -70.0640  -20.5800 C.2   167  THR167      0.2642
     20  O        -20.0440  -70.5490  -19.7770 O.2   167  THR167     -0.2714
     21  CB       -19.2730  -71.6130  -22.6070 C.3   167  THR167      0.1808
     22  OG1      -18.4210  -71.9900  -23.6960 O.3   167  THR167     -0.2208
     23  CG2      -20.3450  -70.6790  -23.1180 C.3   167  THR167      0.0379
     24  N        -19.0090  -68.7590  -20.6760 N.am  168  ILE168     -0.1963
     25  CA       -19.8010  -67.7640  -19.9680 C.3   168  ILE168      0.1727
     26  C        -20.4620  -66.8800  -21.0350 C.2   168  ILE168      0.2616
     27  O        -19.7700  -66.1070  -21.7200 O.2   168  ILE168     -0.2715
     28  CB       -18.9390  -66.9070  -18.9960 C.3   168  ILE168      0.0290
     29  CG1      -18.0980  -67.7980  -18.0700 C.3   168  ILE168      0.0022
     30  CG2      -19.8200  -65.9440  -18.1700 C.3   168  ILE168      0.0023
     31  CD1      -16.8550  -67.1040  -17.4940 C.3   168  ILE168      0.0001
     32  N        -21.7860  -67.0250  -21.1820 N.am  169  GLU169     -0.1963
     33  CA       -22.5540  -66.3810  -22.2420 C.3   169  GLU169      0.1733
     34  C        -22.4040  -64.8690  -22.2140 C.2   169  GLU169      0.2617
     35  O        -22.5980  -64.2410  -21.1740 O.2   169  GLU169     -0.2715
     36  CB       -24.0450  -66.7850  -22.1730 C.3   169  GLU169      0.0429
     37  CG       -24.3060  -68.2280  -22.6330 C.3   169  GLU169      0.1163
     38  CD       -25.7410  -68.7080  -22.4060 C.2   169  GLU169      0.3649
     39  OE1      -26.6350  -67.8730  -22.1220 O.co2 169  GLU169     -0.2457
     40  OE2      -25.9750  -69.9390  -22.5230 O.co2 169  GLU169     -0.2457
     41  N        -22.0340  -64.2970  -23.3590 N.am  170  GLY170     -0.1940
     42  CA       -21.8630  -62.8590  -23.4880 C.3   170  GLY170      0.2014
     43  C        -20.4830  -62.3970  -23.0760 C.2   170  GLY170      0.2638
     44  O        -20.0910  -61.2670  -23.3540 O.2   170  GLY170     -0.2714
     45  N        -19.7390  -63.2630  -22.3940 N.am  171  VAL171     -0.1977
     46  CA       -18.4060  -62.9310  -21.8980 C.3   171  VAL171      0.1596
     47  C        -17.3510  -63.5680  -22.8080 C.2   171  VAL171      0.2287
     48  O        -16.5420  -62.8500  -23.3880 O.2   171  VAL171     -0.2864
     49  CB       -18.2220  -63.3580  -20.4030 C.3   171  VAL171      0.0276
     50  CG1      -16.7730  -63.2080  -19.9450 C.3   171  VAL171      0.0022
     51  CG2      -19.2060  -62.5840  -19.4830 C.3   171  VAL171      0.0022
     52  N        -23.2250  -61.8340  -27.6880 N.3   175  TYR175     -0.1241
     53  CA       -24.5930  -61.4760  -27.4180 C.3   175  TYR175      0.1605
     54  C        -25.0470  -60.4850  -28.4810 C.2   175  TYR175      0.2264
     55  O        -24.2590  -59.6510  -28.9460 O.2   175  TYR175     -0.2867
     56  CB       -24.7010  -60.7680  -26.0630 C.3   175  TYR175      0.0534
     57  CG       -25.0810  -61.6000  -24.8560 C.ar  175  TYR175     -0.0201
     58  CD1      -25.0130  -61.0350  -23.5770 C.ar  175  TYR175     -0.0009
     59  CD2      -25.5050  -62.9310  -24.9670 C.ar  175  TYR175     -0.0009
     60  CE1      -25.3560  -61.7560  -22.4360 C.ar  175  TYR175      0.0417
     61  CE2      -25.8530  -63.6690  -23.8290 C.ar  175  TYR175      0.0417
     62  CZ       -25.7690  -63.0680  -22.5610 C.ar  175  TYR175      0.1957
     63  OH       -26.1120  -63.7510  -21.4020 O.3   175  TYR175     -0.2866
     64  N        -28.0470  -57.4470  -29.2300 N.3   177  TYR177     -0.1241
     65  CA       -28.9770  -56.5600  -28.5450 C.3   177  TYR177      0.1605
     66  C        -29.8350  -55.8400  -29.5500 C.2   177  TYR177      0.2264
     67  O        -29.3140  -55.0830  -30.3720 O.2   177  TYR177     -0.2867
     68  CB       -28.2500  -55.5050  -27.7090 C.3   177  TYR177      0.0534
     69  CG       -27.3550  -56.0570  -26.6400 C.ar  177  TYR177     -0.0201
     70  CD1      -26.0410  -56.4460  -26.9250 C.ar  177  TYR177     -0.0009
     71  CD2      -27.8060  -56.1590  -25.3280 C.ar  177  TYR177     -0.0009
     72  CE1      -25.2170  -56.9540  -25.9210 C.ar  177  TYR177      0.0417
     73  CE2      -26.9860  -56.6520  -24.3190 C.ar  177  TYR177      0.0417
     74  CZ       -25.7070  -57.0510  -24.6260 C.ar  177  TYR177      0.1957
     75  OH       -24.9300  -57.5430  -23.6130 O.3   177  TYR177     -0.2866
     76  N        -17.2160  -54.0330  -16.9900 N.3   190  GLU190     -0.1231
     77  CA       -17.4200  -55.4000  -17.4490 C.3   190  GLU190      0.1699
     78  C        -17.2320  -56.3960  -16.3150 C.2   190  GLU190      0.2592
     79  O        -16.5890  -56.0810  -15.3100 O.2   190  GLU190     -0.2718
     80  CB       -16.4610  -55.7420  -18.5940 C.3   190  GLU190      0.0402
     81  CG       -16.6320  -54.8730  -19.8080 C.3   190  GLU190      0.1161
     82  CD       -18.0810  -54.7590  -20.2550 C.2   190  GLU190      0.3649
     83  OE1      -18.5930  -53.6310  -20.2830 O.co2 190  GLU190     -0.2457
     84  OE2      -18.7170  -55.7830  -20.5440 O.co2 190  GLU190     -0.2457
     85  N        -17.7810  -57.6070  -16.4850 N.am  191  ASP191     -0.1974
     86  CA       -17.4570  -58.6860  -15.5710 C.3   191  ASP191      0.1709
     87  C        -15.9410  -58.8790  -15.4820 C.2   191  ASP191      0.2293
     88  O        -15.2550  -58.8330  -16.4910 O.2   191  ASP191     -0.2864
     89  CB       -18.1530  -59.9620  -16.0010 C.3   191  ASP191      0.1436
     90  CG       -19.6760  -59.8790  -15.8060 C.2   191  ASP191      0.3671
     91  OD1      -20.1120  -59.7640  -14.6310 O.co2 191  ASP191     -0.2456
     92  OD2      -20.4280  -59.9130  -16.8200 O.co2 191  ASP191     -0.2456
     93  N        -14.5910  -54.8190  -23.3010 N.3   196  SER196     -0.1217
     94  CA       -15.6280  -55.2480  -24.2260 C.3   196  SER196      0.1889
     95  C        -15.4250  -54.6700  -25.6240 C.2   196  SER196      0.2288
     96  O        -14.7660  -53.6630  -25.8020 O.2   196  SER196     -0.2866
     97  CB       -17.0310  -54.9280  -23.6950 C.3   196  SER196      0.2089
     98  OG       -17.1620  -53.5350  -23.4760 O.3   196  SER196     -0.2183
     99  N        -26.3540  -53.8430  -12.7610 N.3   241  LYS241     -0.1245
    100  CA       -26.7470  -53.0610  -13.9390 C.3   241  LYS241      0.1561
    101  C        -28.1620  -52.4610  -13.8120 C.2   241  LYS241      0.2260
    102  O        -28.9440  -52.4630  -14.7720 O.2   241  LYS241     -0.2867
    103  CB       -26.5730  -53.8870  -15.2340 C.3   241  LYS241      0.0271
    104  CG       -25.0960  -54.1530  -15.6100 C.3   241  LYS241      0.0035
    105  CD       -25.0200  -55.2170  -16.7260 C.3   241  LYS241      0.0206
    106  CE       -23.5850  -55.4360  -17.2190 C.3   241  LYS241      0.1093
    107  NZ       -23.4770  -56.4620  -18.3550 N.3   241  LYS241     -0.1314
    108  N        -21.9920  -57.7910  -28.9960 N.3   288  SER288     -0.1202
    109  CA       -20.8520  -57.6220  -28.1090 C.3   288  SER288      0.2020
    110  C        -20.3730  -58.8870  -27.4220 C.2   288  SER288      0.2619
    111  O        -21.0760  -59.9020  -27.3570 O.2   288  SER288     -0.2717
    112  CB       -21.1360  -56.5720  -27.0450 C.3   288  SER288      0.2103
    113  OG       -22.2240  -56.9980  -26.2670 O.3   288  SER288     -0.2182
    114  N        -19.1450  -58.8030  -26.9260 N.am  289  THR289     -0.1938
    115  CA       -18.5430  -59.8390  -26.1220 C.3   289  THR289      0.2028
    116  C        -17.4330  -59.1870  -25.3130 C.2   289  THR289      0.2642
    117  O        -17.1080  -58.0150  -25.5310 O.2   289  THR289     -0.2714
    118  CB       -17.9870  -60.9940  -26.9910 C.3   289  THR289      0.1808
    119  OG1      -17.9020  -62.1830  -26.2040 O.3   289  THR289     -0.2208
    120  CG2      -16.6060  -60.6680  -27.5440 C.3   289  THR289      0.0379
    121  N        -16.8560  -59.9440  -24.3810 N.am  290  ASN290     -0.1971
    122  CA       -15.7020  -59.4720  -23.6200 C.3   290  ASN290      0.1688
    123  C        -14.3940  -60.0070  -24.1930 C.2   290  ASN290      0.2292
    124  O        -14.3790  -60.9900  -24.9520 O.2   290  ASN290     -0.2864
    125  CB       -15.8260  -59.8740  -22.1500 C.3   290  ASN290      0.1181
    126  CG       -16.8570  -59.0620  -21.4000 C.2   290  ASN290      0.2629
    127  OD1      -17.7750  -59.7460  -20.7410 O.2   290  ASN290     -0.2716
    128  ND2      -16.8020  -57.8260  -21.3770 N.am  290  ASN290     -0.0877
    129  N        -25.3590  -66.2500   -9.3380 N.3   311  ASP311     -0.1225
    130  CA       -25.1780  -66.4330  -10.7920 C.3   311  ASP311      0.1805
    131  C        -24.1840  -65.4570  -11.4480 C.2   311  ASP311      0.2598
    132  O        -24.0710  -65.3890  -12.6890 O.2   311  ASP311     -0.2718
    133  CB       -26.5320  -66.3300  -11.5040 C.3   311  ASP311      0.1424
    134  CG       -27.2960  -65.0440  -11.1530 C.2   311  ASP311      0.3668
    135  OD1      -26.6670  -63.9640  -10.9900 O.co2 311  ASP311     -0.2456
    136  OD2      -28.5450  -65.1180  -11.0480 O.co2 311  ASP311     -0.2456
    137  N        -23.4720  -64.6990  -10.6170 N.am  312  MET312     -0.1965
    138  CA       -22.5980  -63.6520  -11.1120 C.3   312  MET312      0.1736
    139  C        -21.3240  -64.2150  -11.7330 C.2   312  MET312      0.2616
    140  O        -20.8530  -65.2870  -11.3390 O.2   312  MET312     -0.2715
    141  CB       -22.2950  -62.6500   -9.9970 C.3   312  MET312      0.0427
    142  CG       -23.5660  -62.0060   -9.4100 C.3   312  MET312      0.0599
    143  SD       -24.8070  -61.3520  -10.5930 S.3   312  MET312     -0.1393
    144  CE       -24.2900  -59.6320  -10.7690 C.3   312  MET312      0.0692
    145  N        -20.7810  -63.4860  -12.7090 N.am  313  VAL313     -0.1963
    146  CA       -19.5680  -63.9120  -13.4290 C.3   313  VAL313      0.1727
    147  C        -18.2740  -63.8390  -12.5860 C.2   313  VAL313      0.2616
    148  O        -17.8940  -62.7760  -12.0780 O.2   313  VAL313     -0.2715
    149  CB       -19.4160  -63.1670  -14.7670 C.3   313  VAL313      0.0290
    150  CG1      -18.1350  -63.6160  -15.5040 C.3   313  VAL313      0.0023
    151  CG2      -20.6800  -63.3820  -15.6270 C.3   313  VAL313      0.0023
    152  N        -17.6110  -64.9900  -12.4700 N.am  314  LYS314     -0.1977
    153  CA       -16.4460  -65.1680  -11.6190 C.3   314  LYS314      0.1596
    154  C        -15.4160  -66.0080  -12.3630 C.2   314  LYS314      0.2287
    155  O        -15.5980  -67.2090  -12.5370 O.2   314  LYS314     -0.2864
    156  CB       -16.8620  -65.9150  -10.3550 C.3   314  LYS314      0.0298
    157  CG       -16.2610  -65.4210   -9.0590 C.3   314  LYS314      0.0038
    158  CD       -14.7750  -65.6860   -8.9350 C.3   314  LYS314      0.0206
    159  CE       -14.3670  -65.6160   -7.4770 C.3   314  LYS314      0.1093
    160  NZ       -15.3450  -66.3780   -6.6420 N.3   314  LYS314     -0.1314
@<TRIPOS>BOND
     1    67    66    2
     2    66    65    1
     3    64    65    1
     4   108   109    1
     5    55    54    2
     6    65    68    1
     7    54    53    1
     8   109   110    1
     9   109   112    1
    10    68    69    1
    11    52    53    1
    12   120   118    1
    13   110   111    2
    14   110   114   am
    15    53    56    1
    16   112   113    1
    17   118   119    1
    18   118   115    1
    19   114   115    1
    20    70    69   ar
    21    70    72   ar
    22    69    71   ar
    23   115   116    1
    24    56    57    1
    25    72    74   ar
    26    96    95    2
    27    95    94    1
    28   117   116    2
    29    71    73   ar
    30   116   121   am
    31     3     4    2
    32     3     2    1
    33    59    57   ar
    34    59    61   ar
    35   124   123    2
    36    57    58   ar
    37    74    73   ar
    38    74    75    1
    39     1     2    1
    40   121   122    1
    41    94    97    1
    42    94    93    1
    43   123   122    1
    44     2     5    1
    45    61    62   ar
    46    22    21    1
    47    97    98    1
    48   122   125    1
    49    58    60   ar
    50    42    41    1
    51    42    43    1
    52    48    47    2
    53    41    34   am
    54    44    43    2
    55    23    21    1
    56    43    45   am
    57    47    46    1
    58     5     6    1
    59    37    38    1
    60    37    36    1
    61    21    18    1
    62    62    60   ar
    63    62    63    1
    64    40    38   ar
    65    38    39   ar
    66    45    46    1
    67    33    34    1
    68    33    36    1
    69    33    32    1
    70    34    35    2
    71   125   126    1
    72     7     6   ar
    73    46    49    1
    74     6     8   ar
    75    27    26    2
    76    18    17    1
    77    18    19    1
    78   126   128   am
    79   126   127    2
    80    32    26   am
    81    26    25    1
    82    17    11   am
    83    24    19   am
    84    24    25    1
    85    19    20    2
    86    12    11    2
    87    84    82   ar
    88    49    50    1
    89    49    51    1
    90    83    82   ar
    91    82    81    1
    92    11    10    1
    93    25    28    1
    94    81    80    1
    95     9    10    1
    96    10    13    1
    97    28    30    1
    98    28    29    1
    99    80    77    1
   100   107   106    1
   101    29    31    1
   102    13    15    1
   103    13    14    1
   104    77    76    1
   105    77    78    1
   106   106   105    1
   107    92    90   ar
   108    14    16    1
   109   105   104    1
   110    88    87    2
   111    85    78   am
   112    85    86    1
   113    78    79    2
   114    89    90    1
   115    89    86    1
   116    90    91   ar
   117   151   149    1
   118   104   103    1
   119    86    87    1
   120   150   149    1
   121   103   100    1
   122   102   101    2
   123   149   146    1
   124   100   101    1
   125   100    99    1
   126   146   145    1
   127   146   147    1
   128   145   139   am
   129   132   131    2
   130   147   152   am
   131   147   148    2
   132   155   154    2
   133   152   153    1
   134   154   153    1
   135   139   140    2
   136   139   138    1
   137   153   156    1
   138   133   134    1
   139   133   130    1
   140   131   130    1
   141   131   137   am
   142   134   136   ar
   143   134   135   ar
   144   138   137    1
   145   138   141    1
   146   130   129    1
   147   144   143    1
   148   143   142    1
   149   156   157    1
   150   141   142    1
   151   157   158    1
   152   158   159    1
   153   159   160    1
