@<TRIPOS>MOLECULE
tmp/2q8eA00.pdb
 178 170 0 0 0
SMALL
GASTEIGER

@<TRIPOS>ATOM
      1  N        -28.9130  -59.7250  -24.4480 N.3   133  ASP133     -0.1239
      2  CA       -28.3160  -60.9910  -23.9930 C.3   133  ASP133      0.1674
      3  C        -28.7080  -62.1480  -24.8170 C.2   133  ASP133      0.2266
      4  O        -28.8710  -63.2510  -24.2960 O.2   133  ASP133     -0.2867
      5  CB       -28.6670  -61.3000  -22.5380 C.3   133  ASP133      0.1410
      6  CG       -28.1410  -60.2520  -21.5710 C.2   133  ASP133      0.3668
      7  OD1      -27.2600  -59.4590  -21.9180 O.co2 133  ASP133     -0.2456
      8  OD2      -28.6500  -60.2000  -20.4410 O.co2 133  ASP133     -0.2456
      9  N        -14.8080  -74.3790  -19.5830 N.3   164  ILE164     -0.1231
     10  CA       -15.8730  -73.5160  -19.1280 C.3   164  ILE164      0.1692
     11  C        -16.1830  -72.3860  -20.1030 C.2   164  ILE164      0.2593
     12  O        -15.3270  -71.5540  -20.4510 O.2   164  ILE164     -0.2718
     13  CB       -15.6390  -72.9400  -17.7030 C.3   164  ILE164      0.0266
     14  CG1      -15.5870  -74.0500  -16.6610 C.3   164  ILE164      0.0019
     15  CG2      -16.7590  -71.9700  -17.3310 C.3   164  ILE164      0.0020
     16  CD1      -15.1140  -73.5400  -15.2970 C.3   164  ILE164      0.0001
     17  N        -17.4490  -72.3830  -20.5060 N.am  165  THR165     -0.1939
     18  CA       -18.0570  -71.3520  -21.3070 C.3   165  THR165      0.2028
     19  C        -18.8910  -70.4730  -20.3830 C.2   165  THR165      0.2642
     20  O        -19.6970  -70.9790  -19.5760 O.2   165  THR165     -0.2714
     21  CB       -18.8780  -71.9990  -22.4720 C.3   165  THR165      0.1808
     22  OG1      -18.0470  -72.0660  -23.6500 O.3   165  THR165     -0.2208
     23  CG2      -20.1690  -71.2370  -22.7740 C.3   165  THR165      0.0379
     24  N        -18.6640  -69.1600  -20.4900 N.am  166  ILE166     -0.1963
     25  CA       -19.4360  -68.1400  -19.7670 C.3   166  ILE166      0.1727
     26  C        -20.1290  -67.2460  -20.8060 C.2   166  ILE166      0.2616
     27  O        -19.4830  -66.4490  -21.4800 O.2   166  ILE166     -0.2715
     28  CB       -18.5420  -67.2940  -18.8370 C.3   166  ILE166      0.0290
     29  CG1      -17.6150  -68.1900  -17.9910 C.3   166  ILE166      0.0022
     30  CG2      -19.3740  -66.3350  -17.9740 C.3   166  ILE166      0.0023
     31  CD1      -16.5800  -67.3880  -17.1570 C.3   166  ILE166      0.0001
     32  N        -21.4500  -67.3880  -20.9310 N.am  167  GLU167     -0.1963
     33  CA       -22.2160  -66.7320  -21.9970 C.3   167  GLU167      0.1733
     34  C        -22.0780  -65.2310  -21.9690 C.2   167  GLU167      0.2617
     35  O        -22.2170  -64.6270  -20.9110 O.2   167  GLU167     -0.2715
     36  CB       -23.7080  -67.1050  -21.9140 C.3   167  GLU167      0.0429
     37  CG       -24.0050  -68.4870  -22.3650 C.3   167  GLU167      0.1163
     38  CD       -25.5090  -68.8170  -22.2590 C.2   167  GLU167      0.3649
     39  OE1      -26.2950  -67.9060  -21.8520 O.co2 167  GLU167     -0.2457
     40  OE2      -25.8730  -69.9750  -22.5720 O.co2 167  GLU167     -0.2457
     41  N        -21.8380  -64.6320  -23.1360 N.am  168  GLY168     -0.1940
     42  CA       -21.5750  -63.1930  -23.2590 C.3   168  GLY168      0.2014
     43  C        -20.1490  -62.7640  -22.8680 C.2   168  GLY168      0.2638
     44  O        -19.6990  -61.6500  -23.1570 O.2   168  GLY168     -0.2714
     45  N        -19.4460  -63.6400  -22.1680 N.am  169  VAL169     -0.1977
     46  CA       -18.1080  -63.3200  -21.6660 C.3   169  VAL169      0.1596
     47  C        -17.0800  -63.9340  -22.6010 C.2   169  VAL169      0.2287
     48  O        -16.3110  -63.2180  -23.2410 O.2   169  VAL169     -0.2864
     49  CB       -17.9370  -63.7930  -20.1870 C.3   169  VAL169      0.0276
     50  CG1      -16.4760  -63.6550  -19.7250 C.3   169  VAL169      0.0022
     51  CG2      -18.8540  -62.9580  -19.2960 C.3   169  VAL169      0.0022
     52  N        -22.8340  -62.1180  -27.4470 N.3   173  TYR173     -0.1241
     53  CA       -24.2190  -61.7480  -27.2110 C.3   173  TYR173      0.1605
     54  C        -24.6970  -60.7780  -28.2760 C.2   173  TYR173      0.2264
     55  O        -23.9570  -59.8900  -28.6830 O.2   173  TYR173     -0.2867
     56  CB       -24.3510  -61.0100  -25.8800 C.3   173  TYR173      0.0534
     57  CG       -24.6340  -61.8550  -24.6790 C.ar  173  TYR173     -0.0201
     58  CD1      -24.6570  -61.2880  -23.4300 C.ar  173  TYR173     -0.0009
     59  CD2      -24.8870  -63.2170  -24.7980 C.ar  173  TYR173     -0.0009
     60  CE1      -24.9480  -62.0400  -22.3030 C.ar  173  TYR173      0.0417
     61  CE2      -25.1780  -63.9910  -23.6870 C.ar  173  TYR173      0.0417
     62  CZ       -25.2020  -63.3880  -22.4380 C.ar  173  TYR173      0.1957
     63  OH       -25.4770  -64.1250  -21.3080 O.3   173  TYR173     -0.2866
     64  N        -27.6770  -57.7730  -29.0490 N.3   175  TYR175     -0.1241
     65  CA       -28.5500  -56.8330  -28.3490 C.3   175  TYR175      0.1605
     66  C        -29.3650  -56.0830  -29.3840 C.2   175  TYR175      0.2264
     67  O        -28.8150  -55.1970  -30.0550 O.2   175  TYR175     -0.2867
     68  CB       -27.7490  -55.7820  -27.5760 C.3   175  TYR175      0.0534
     69  CG       -26.9100  -56.3280  -26.4450 C.ar  175  TYR175     -0.0201
     70  CD1      -25.6040  -56.8120  -26.6710 C.ar  175  TYR175     -0.0009
     71  CD2      -27.4190  -56.3680  -25.1640 C.ar  175  TYR175     -0.0009
     72  CE1      -24.8570  -57.3350  -25.6330 C.ar  175  TYR175      0.0417
     73  CE2      -26.6750  -56.8690  -24.1200 C.ar  175  TYR175      0.0417
     74  CZ       -25.3950  -57.3590  -24.3700 C.ar  175  TYR175      0.1957
     75  OH       -24.6880  -57.8730  -23.3230 O.3   175  TYR175     -0.2866
     76  N        -21.7220  -49.8140  -15.2680 N.3   186  HIS186     -0.1241
     77  CA       -21.0120  -51.0010  -14.8470 C.3   186  HIS186      0.1621
     78  C        -19.5790  -51.0000  -15.4390 C.2   186  HIS186      0.2264
     79  O        -19.3160  -50.3210  -16.4130 O.2   186  HIS186     -0.2867
     80  CB       -21.7580  -52.2540  -15.3140 C.3   186  HIS186      0.0745
     81  CG       -21.7060  -52.4680  -16.8040 C.ar  186  HIS186      0.0817
     82  ND1      -22.4200  -51.7020  -17.7110 N.ar  186  HIS186     -0.2268
     83  CD2      -20.9680  -53.3370  -17.5390 C.ar  186  HIS186      0.1154
     84  CE1      -22.1230  -52.0970  -18.9390 C.ar  186  HIS186      0.1986
     85  NE2      -21.2120  -53.0650  -18.8670 N.ar  186  HIS186     -0.2212
     86  N        -16.9010  -54.2950  -16.7780 N.3   188  GLU188     -0.1231
     87  CA       -17.1250  -55.6750  -17.2050 C.3   188  GLU188      0.1699
     88  C        -16.9530  -56.7170  -16.1280 C.2   188  GLU188      0.2592
     89  O        -16.3140  -56.4690  -15.0980 O.2   188  GLU188     -0.2718
     90  CB       -16.2530  -56.0050  -18.4310 C.3   188  GLU188      0.0402
     91  CG       -16.4430  -55.0330  -19.4590 C.3   188  GLU188      0.1161
     92  CD       -17.8910  -55.0490  -19.9530 C.2   188  GLU188      0.3649
     93  OE1      -18.5070  -53.9880  -19.9380 O.co2 188  GLU188     -0.2457
     94  OE2      -18.4030  -56.1060  -20.3090 O.co2 188  GLU188     -0.2457
     95  N        -17.5470  -57.8940  -16.3490 N.am  189  ASP189     -0.1974
     96  CA       -17.2840  -58.9940  -15.4550 C.3   189  ASP189      0.1709
     97  C        -15.7560  -59.1600  -15.3060 C.2   189  ASP189      0.2293
     98  O        -15.0180  -59.0620  -16.2970 O.2   189  ASP189     -0.2864
     99  CB       -17.9550  -60.2490  -16.0030 C.3   189  ASP189      0.1436
    100  CG       -19.5040  -60.2140  -15.7750 C.2   189  ASP189      0.3671
    101  OD1      -19.9040  -59.9990  -14.6100 O.co2 189  ASP189     -0.2456
    102  OD2      -20.2840  -60.2790  -16.7700 O.co2 189  ASP189     -0.2456
    103  N        -14.3470  -55.0650  -23.1050 N.3   194  SER194     -0.1217
    104  CA       -15.4370  -55.5130  -23.9380 C.3   194  SER194      0.1889
    105  C        -15.2460  -54.9250  -25.2990 C.2   194  SER194      0.2288
    106  O        -14.5730  -53.9300  -25.4650 O.2   194  SER194     -0.2866
    107  CB       -16.8160  -55.1380  -23.3260 C.3   194  SER194      0.2089
    108  OG       -16.8120  -53.7720  -22.9310 O.3   194  SER194     -0.2183
    109  N        -17.7730  -54.0950  -28.7670 N.3   196  ASN196     -0.1240
    110  CA       -19.2060  -53.9240  -29.0970 C.3   196  ASN196      0.1653
    111  C        -19.3110  -53.3870  -30.5100 C.2   196  ASN196      0.2266
    112  O        -18.8230  -52.3100  -30.7850 O.2   196  ASN196     -0.2867
    113  CB       -19.8930  -52.9970  -28.0740 C.3   196  ASN196      0.1155
    114  CG       -21.4490  -52.8570  -28.3080 C.2   196  ASN196      0.2627
    115  OD1      -21.8990  -52.4320  -29.3740 O.2   196  ASN196     -0.2716
    116  ND2      -22.2450  -53.2200  -27.2900 N.am  196  ASN196     -0.0877
    117  N        -26.1160  -54.0610  -12.4680 N.3   239  LYS239     -0.1245
    118  CA       -26.4450  -53.3420  -13.6880 C.3   239  LYS239      0.1561
    119  C        -27.8990  -52.7700  -13.6220 C.2   239  LYS239      0.2260
    120  O        -28.6750  -52.8390  -14.5970 O.2   239  LYS239     -0.2867
    121  CB       -26.2110  -54.2180  -14.9240 C.3   239  LYS239      0.0271
    122  CG       -24.7030  -54.3320  -15.3650 C.3   239  LYS239      0.0035
    123  CD       -24.5720  -55.5360  -16.2660 C.3   239  LYS239      0.0206
    124  CE       -23.1660  -55.7330  -16.8260 C.3   239  LYS239      0.1093
    125  NZ       -23.1330  -56.9480  -17.7410 N.3   239  LYS239     -0.1314
    126  N        -21.6700  -58.2140  -28.9300 N.3   286  SER286     -0.1202
    127  CA       -20.7030  -57.9040  -27.9070 C.3   286  SER286      0.2020
    128  C        -20.0920  -59.1430  -27.2220 C.2   286  SER286      0.2619
    129  O        -20.7210  -60.1900  -27.1300 O.2   286  SER286     -0.2717
    130  CB       -21.3700  -57.0160  -26.8720 C.3   286  SER286      0.2103
    131  OG       -20.4170  -56.4830  -25.9800 O.3   286  SER286     -0.2182
    132  N        -18.8540  -59.0120  -26.7470 N.am  287  THR287     -0.1938
    133  CA       -18.2010  -60.0400  -25.9440 C.3   287  THR287      0.2028
    134  C        -17.0740  -59.4030  -25.1100 C.2   287  THR287      0.2642
    135  O        -16.7130  -58.2420  -25.2910 O.2   287  THR287     -0.2714
    136  CB       -17.6870  -61.2540  -26.7700 C.3   287  THR287      0.1808
    137  OG1      -17.6720  -62.4410  -25.9560 O.3   287  THR287     -0.2208
    138  CG2      -16.2560  -61.0300  -27.3670 C.3   287  THR287      0.0379
    139  N        -16.5410  -60.1680  -24.1740 N.am  288  ASN288     -0.1971
    140  CA       -15.3840  -59.7040  -23.4100 C.3   288  ASN288      0.1688
    141  C        -14.0600  -60.2030  -23.9940 C.2   288  ASN288      0.2292
    142  O        -14.0210  -61.1460  -24.7760 O.2   288  ASN288     -0.2864
    143  CB       -15.5070  -60.1230  -21.9530 C.3   288  ASN288      0.1181
    144  CG       -16.5580  -59.3310  -21.2130 C.2   288  ASN288      0.2629
    145  OD1      -17.4970  -60.0250  -20.6440 O.2   288  ASN288     -0.2716
    146  ND2      -16.5010  -58.1050  -21.1260 N.am  288  ASN288     -0.0877
    147  N        -25.0360  -66.5020   -8.8890 N.3   309  ASP309     -0.1225
    148  CA       -24.9460  -66.7520  -10.3400 C.3   309  ASP309      0.1805
    149  C        -24.0680  -65.7190  -11.0800 C.2   309  ASP309      0.2598
    150  O        -24.0470  -65.6550  -12.3270 O.2   309  ASP309     -0.2718
    151  CB       -26.3630  -66.7860  -10.9400 C.3   309  ASP309      0.1424
    152  CG       -27.3250  -67.7010  -10.1480 C.2   309  ASP309      0.3668
    153  OD1      -27.4590  -67.5190   -8.9070 O.co2 309  ASP309     -0.2456
    154  OD2      -27.9550  -68.6020  -10.7640 O.co2 309  ASP309     -0.2456
    155  N        -23.3510  -64.9160  -10.2960 N.am  310  MET310     -0.1965
    156  CA       -22.4880  -63.8620  -10.8080 C.3   310  MET310      0.1736
    157  C        -21.2150  -64.4560  -11.4640 C.2   310  MET310      0.2616
    158  O        -20.8210  -65.5890  -11.1610 O.2   310  MET310     -0.2715
    159  CB       -22.1830  -62.8650   -9.6740 C.3   310  MET310      0.0427
    160  CG       -20.8870  -63.0970   -8.8600 C.3   310  MET310      0.0599
    161  SD       -20.5740  -64.7040   -8.0470 S.3   310  MET310     -0.1393
    162  CE       -18.8690  -64.4130   -7.5120 C.3   310  MET310      0.0692
    163  N        -20.5790  -63.7060  -12.3640 N.am  311  VAL311     -0.1963
    164  CA       -19.3820  -64.2100  -13.0900 C.3   311  VAL311      0.1727
    165  C        -18.0550  -64.1120  -12.2730 C.2   311  VAL311      0.2616
    166  O        -17.6380  -63.0220  -11.8830 O.2   311  VAL311     -0.2715
    167  CB       -19.2580  -63.5430  -14.4870 C.3   311  VAL311      0.0290
    168  CG1      -17.9120  -63.8730  -15.1610 C.3   311  VAL311      0.0023
    169  CG2      -20.4490  -63.9130  -15.3970 C.3   311  VAL311      0.0023
    170  N        -17.4310  -65.2650  -12.0060 N.am  312  LYS312     -0.1977
    171  CA       -16.1170  -65.3550  -11.3740 C.3   312  LYS312      0.1596
    172  C        -15.2050  -66.2610  -12.2060 C.2   312  LYS312      0.2287
    173  O        -15.5530  -67.4030  -12.5080 O.2   312  LYS312     -0.2864
    174  CB       -16.2020  -65.8990   -9.9340 C.3   312  LYS312      0.0298
    175  CG       -14.8470  -65.8960   -9.1670 C.3   312  LYS312      0.0038
    176  CD       -14.8950  -66.5810   -7.7990 C.3   312  LYS312      0.0206
    177  CE       -14.3870  -68.0480   -7.8490 C.3   312  LYS312      0.1093
    178  NZ       -12.8960  -68.2190   -8.1800 N.3   312  LYS312     -0.1314
@<TRIPOS>BOND
     1   112   111    2
     2   111   110    1
     3    67    66    2
     4    66    65    1
     5   115   114    2
     6   110   109    1
     7   110   113    1
     8    64    65    1
     9   126   127    1
    10    55    54    2
    11    65    68    1
    12   114   113    1
    13   114   116   am
    14    54    53    1
    15   127   128    1
    16   127   130    1
    17    68    69    1
    18    52    53    1
    19   138   136    1
    20   128   129    2
    21   128   132   am
    22    53    56    1
    23   130   131    1
    24   136   137    1
    25   136   133    1
    26   132   133    1
    27    70    69   ar
    28    70    72   ar
    29    69    71   ar
    30   133   134    1
    31    56    57    1
    32    72    74   ar
    33   106   105    2
    34   105   104    1
    35   135   134    2
    36    71    73   ar
    37   134   139   am
    38     3     4    2
    39     3     2    1
    40    59    57   ar
    41    59    61   ar
    42   142   141    2
    43    57    58   ar
    44     1     2    1
    45    74    73   ar
    46    74    75    1
    47   139   140    1
    48   141   140    1
    49     2     5    1
    50   104   107    1
    51   104   103    1
    52    61    62   ar
    53    22    21    1
    54    58    60   ar
    55   140   143    1
    56   107   108    1
    57    42    41    1
    58    42    43    1
    59    48    47    2
    60    44    43    2
    61    41    34   am
    62    43    45   am
    63    23    21    1
    64    47    46    1
    65    40    38   ar
    66     5     6    1
    67    21    18    1
    68    62    60   ar
    69    62    63    1
    70    37    38    1
    71    37    36    1
    72    38    39   ar
    73    45    46    1
    74    33    34    1
    75    33    36    1
    76    33    32    1
    77    34    35    2
    78   143   144    1
    79     7     6   ar
    80    46    49    1
    81     6     8   ar
    82    27    26    2
    83    18    17    1
    84    18    19    1
    85   144   146   am
    86   144   145    2
    87    32    26   am
    88    26    25    1
    89    17    11   am
    90    24    19   am
    91    24    25    1
    92    12    11    2
    93    19    20    2
    94    94    92   ar
    95    49    50    1
    96    49    51    1
    97    11    10    1
    98    92    93   ar
    99    92    91    1
   100    25    28    1
   101     9    10    1
   102    91    90    1
   103    10    13    1
   104    84    85   ar
   105    84    82   ar
   106    85    83   ar
   107    28    29    1
   108    28    30    1
   109    90    87    1
   110    29    31    1
   111   125   124    1
   112    82    81   ar
   113    13    15    1
   114    13    14    1
   115    83    81   ar
   116    87    86    1
   117    87    88    1
   118   124   123    1
   119    81    80    1
   120   102   100   ar
   121    14    16    1
   122    79    78    2
   123    95    88   am
   124    95    96    1
   125    98    97    2
   126   123   122    1
   127    88    89    2
   128    99   100    1
   129    99    96    1
   130   100   101   ar
   131    96    97    1
   132    78    77    1
   133   169   167    1
   134   122   121    1
   135    80    77    1
   136    76    77    1
   137   168   167    1
   138   121   118    1
   139   120   119    2
   140   167   164    1
   141   118   119    1
   142   118   117    1
   143   164   163    1
   144   164   165    1
   145   173   172    2
   146   163   157   am
   147   150   149    2
   148   165   170   am
   149   165   166    2
   150   172   171    1
   151   170   171    1
   152   157   158    2
   153   157   156    1
   154   171   174    1
   155   149   148    1
   156   149   155   am
   157   151   148    1
   158   151   152    1
   159   156   155    1
   160   156   159    1
   161   154   152   ar
   162   148   147    1
   163   152   153   ar
   164   174   175    1
   165   159   160    1
   166   175   176    1
   167   160   161    1
   168   178   177    1
   169   161   162    1
   170   177   176    1
