@<TRIPOS>MOLECULE
tmp/2q8gA00.pdb
 146 141 0 0 0
SMALL
GASTEIGER

@<TRIPOS>ATOM
      1  N          2.3600   35.8620    5.9250 N.3    17  LEU17      -0.1245
      2  CA         1.1950   35.7910    6.7920 C.3    17  LEU17       0.1561
      3  C          0.8510   34.3340    6.9780 C.2    17  LEU17       0.2260
      4  O          1.1770   33.5090    6.1150 O.2    17  LEU17      -0.2867
      5  CB         0.0080   36.5070    6.1370 C.3    17  LEU17       0.0270
      6  CG         0.1090   38.0120    5.9990 C.3    17  LEU17       0.0019
      7  CD1       -1.0570   38.5730    5.1750 C.3    17  LEU17       0.0001
      8  CD2        0.1830   38.6670    7.3640 C.3    17  LEU17       0.0001
      9  N         -3.9970   34.1680   10.1240 N.3    21  GLN21      -0.1231
     10  CA        -4.0230   35.6290    9.9510 C.3    21  GLN21       0.1698
     11  C         -4.8610   36.1000    8.7750 C.2    21  GLN21       0.2592
     12  O         -5.6220   37.0720    8.9170 O.2    21  GLN21      -0.2718
     13  CB        -2.6250   36.2160    9.8300 C.3    21  GLN21       0.0381
     14  CG        -1.8580   36.1420   11.1380 C.3    21  GLN21       0.0905
     15  CD        -0.3610   36.4550   11.0120 C.2    21  GLN21       0.2608
     16  OE1        0.2890   36.1820    9.9940 O.2    21  GLN21      -0.2717
     17  NE2        0.1940   37.0370   12.0800 N.am   21  GLN21      -0.0878
     18  N         -4.7150   35.4230    7.6260 N.am   22  PHE22      -0.1976
     19  CA        -5.5560   35.7260    6.4380 C.3    22  PHE22       0.1639
     20  C         -7.0300   35.5610    6.7990 C.2    22  PHE22       0.2290
     21  O         -7.8720   36.3910    6.4900 O.2    22  PHE22      -0.2864
     22  CB        -5.2500   34.7490    5.2910 C.3    22  PHE22       0.0560
     23  CG        -4.0600   35.1120    4.4320 C.ar   22  PHE22      -0.0200
     24  CD1       -4.0400   36.2690    3.6570 C.ar   22  PHE22      -0.0042
     25  CD2       -3.0020   34.2030    4.2890 C.ar   22  PHE22      -0.0042
     26  CE1       -2.9280   36.5430    2.8180 C.ar   22  PHE22      -0.0003
     27  CE2       -1.8630   34.4970    3.4760 C.ar   22  PHE22      -0.0003
     28  CZ        -1.8320   35.6340    2.7390 C.ar   22  PHE22      -0.0000
     29  N         -8.5460   35.4510    9.9860 N.3    24  ASP24      -0.1225
     30  CA        -9.0250   36.3180   11.0340 C.3    24  ASP24       0.1805
     31  C         -9.1650   37.7270   10.5130 C.2    24  ASP24       0.2597
     32  O        -10.0980   38.4380   10.9080 O.2    24  ASP24      -0.2718
     33  CB        -8.0610   36.3030   12.2140 C.3    24  ASP24       0.1424
     34  CG        -8.1030   34.9680   13.0180 C.2    24  ASP24       0.3668
     35  OD1       -9.0270   34.1220   12.8550 O.co2  24  ASP24      -0.2456
     36  OD2       -7.1800   34.7870   13.8420 O.co2  24  ASP24      -0.2456
     37  N         -8.2670   38.1440    9.6280 N.am   25  PHE25      -0.1976
     38  CA        -8.4110   39.4640    9.0080 C.3    25  PHE25       0.1639
     39  C         -9.7740   39.6240    8.2850 C.2    25  PHE25       0.2290
     40  O        -10.5010   40.5820    8.5160 O.2    25  PHE25      -0.2864
     41  CB        -7.2760   39.7870    8.0260 C.3    25  PHE25       0.0560
     42  CG        -7.3930   41.1630    7.4510 C.ar   25  PHE25      -0.0200
     43  CD1       -6.9250   42.2860    8.1780 C.ar   25  PHE25      -0.0042
     44  CD2       -8.0220   41.3670    6.2180 C.ar   25  PHE25      -0.0042
     45  CE1       -7.0820   43.5850    7.6660 C.ar   25  PHE25      -0.0003
     46  CE2       -8.1960   42.6550    5.6910 C.ar   25  PHE25      -0.0003
     47  CZ        -7.7210   43.7720    6.4130 C.ar   25  PHE25      -0.0000
     48  N        -14.5700   38.8760    9.9140 N.3    28  VAL28      -0.1231
     49  CA       -15.6080   39.7350   10.4690 C.3    28  VAL28       0.1692
     50  C        -15.2310   41.1720   10.1730 C.2    28  VAL28       0.2592
     51  O        -14.1520   41.6390   10.5780 O.2    28  VAL28      -0.2718
     52  CB       -15.8310   39.4710   11.9870 C.3    28  VAL28       0.0266
     53  CG1      -16.5220   40.6670   12.6760 C.3    28  VAL28       0.0020
     54  CG2      -16.6410   38.1540   12.1800 C.3    28  VAL28       0.0020
     55  N        -16.1230   41.8360    9.4260 N.am   29  ASN29      -0.1974
     56  CA       -15.9220   43.2070    8.9500 C.3    29  ASN29       0.1688
     57  C        -14.4790   43.5090    8.4800 C.2    29  ASN29       0.2292
     58  O        -13.7760   44.3790    9.0240 O.2    29  ASN29      -0.2864
     59  CB       -16.4780   44.2090    9.9790 C.3    29  ASN29       0.1181
     60  CG       -18.0180   44.2090   10.0110 C.2    29  ASN29       0.2629
     61  OD1      -18.6630   44.0360    8.9650 O.2    29  ASN29      -0.2716
     62  ND2      -18.6110   44.3960   11.2010 N.am   29  ASN29      -0.0877
     63  N        -11.3960   45.0170    7.0100 N.3    31  CYS31      -0.1235
     64  CA       -11.1240   46.4300    6.8810 C.3    31  CYS31       0.1677
     65  C        -10.3420   46.7750    5.5800 C.2    31  CYS31       0.2270
     66  O         -9.1640   46.4080    5.4230 O.2    31  CYS31      -0.2867
     67  CB       -10.4130   46.9200    8.1490 C.3    31  CYS31       0.0956
     68  SG       -10.1890   48.6940    8.2210 S.3    31  CYS31      -0.0801
     69  N         -7.1510   49.0510    6.3090 N.3    34  THR34      -0.1203
     70  CA        -6.0880   48.2560    6.8460 C.3    34  THR34       0.1994
     71  C         -5.4310   47.4470    5.7330 C.2    34  THR34       0.2618
     72  O         -4.1880   47.3220    5.6960 O.2    34  THR34      -0.2717
     73  CB        -6.6290   47.3260    7.9790 C.3    34  THR34       0.1784
     74  OG1       -7.1190   48.1620    9.0290 O.3    34  THR34      -0.2211
     75  CG2       -5.5370   46.5390    8.6300 C.3    34  THR34       0.0376
     76  N         -6.2480   46.8860    4.8380 N.am   35  SER35      -0.1951
     77  CA        -5.7370   46.0880    3.7350 C.3    35  SER35       0.1924
     78  C         -4.9030   46.9720    2.7850 C.2    35  SER35       0.2314
     79  O         -3.7770   46.6230    2.4500 O.2    35  SER35      -0.2863
     80  CB        -6.8720   45.3520    2.9890 C.3    35  SER35       0.2116
     81  OG        -6.2390   44.4160    2.1060 O.3    35  SER35      -0.2180
     82  N         -1.4300   47.7420    4.3940 N.3    38  PHE38      -0.1227
     83  CA        -0.4800   46.6370    4.2770 C.3    38  PHE38       0.1736
     84  C          0.0220   46.4750    2.8110 C.2    38  PHE38       0.2595
     85  O          1.2270   46.4150    2.5440 O.2    38  PHE38      -0.2718
     86  CB        -1.1410   45.3690    4.7950 C.3    38  PHE38       0.0547
     87  CG        -0.3250   44.1180    4.5890 C.ar   38  PHE38      -0.0202
     88  CD1        0.8360   43.8840    5.3300 C.ar   38  PHE38      -0.0042
     89  CD2       -0.7460   43.1440    3.6950 C.ar   38  PHE38      -0.0042
     90  CE1        1.5790   42.6710    5.1610 C.ar   38  PHE38      -0.0003
     91  CE2        0.0130   41.9530    3.5060 C.ar   38  PHE38      -0.0003
     92  CZ         1.1650   41.7530    4.2200 C.ar   38  PHE38      -0.0000
     93  N         -0.9130   46.4280    1.8790 N.am   39  LEU39      -0.1980
     94  CA        -0.6130   46.0420    0.4970 C.3    39  LEU39       0.1596
     95  C          0.0720   47.0890   -0.3320 C.2    39  LEU39       0.2287
     96  O          0.7540   46.7410   -1.2960 O.2    39  LEU39      -0.2864
     97  CB        -1.8740   45.6050   -0.2200 C.3    39  LEU39       0.0297
     98  CG        -2.5460   44.3340    0.3230 C.3    39  LEU39       0.0022
     99  CD1       -3.8620   44.1590   -0.4910 C.3    39  LEU39       0.0001
    100  CD2       -1.6000   43.1110    0.1970 C.3    39  LEU39       0.0001
    101  N         -2.5860   37.4460   -2.4000 N.3   152  LEU152     -0.1245
    102  CA        -2.8870   38.8090   -1.8720 C.3   152  LEU152      0.1561
    103  C         -3.8930   39.5210   -2.7640 C.2   152  LEU152      0.2260
    104  O         -4.8600   40.0700   -2.2740 O.2   152  LEU152     -0.2867
    105  CB        -1.6410   39.6700   -1.7050 C.3   152  LEU152      0.0270
    106  CG        -0.4260   39.1130   -0.8980 C.3   152  LEU152      0.0019
    107  CD1        0.5620   40.1530   -0.6540 C.3   152  LEU152      0.0001
    108  CD2       -0.7990   38.4500    0.4050 C.3   152  LEU152      0.0001
    109  N         -7.2850   37.7530   -2.2730 N.3   155  GLN155     -0.1231
    110  CA        -7.8990   38.0820   -0.9630 C.3   155  GLN155      0.1698
    111  C         -8.5350   39.4630   -0.9990 C.2   155  GLN155      0.2592
    112  O         -9.7150   39.6190   -0.6660 O.2   155  GLN155     -0.2718
    113  CB        -6.9430   37.9590    0.2120 C.3   155  GLN155      0.0381
    114  CG        -6.5420   36.5340    0.6350 C.3   155  GLN155      0.0905
    115  CD        -7.7280   35.6280    0.8490 C.2   155  GLN155      0.2608
    116  OE1       -8.0570   34.8300   -0.0290 O.2   155  GLN155     -0.2717
    117  NE2       -8.4170   35.7830    1.9740 N.am  155  GLN155     -0.0878
    118  N         -7.7740   40.4620   -1.4100 N.am  156  HIS156     -0.1976
    119  CA        -8.2470   41.8400   -1.3820 C.3   156  HIS156      0.1656
    120  C         -9.3890   42.0780   -2.3820 C.2   156  HIS156      0.2291
    121  O        -10.3720   42.7770   -2.0430 O.2   156  HIS156     -0.2864
    122  CB        -7.1070   42.8470   -1.6390 C.3   156  HIS156      0.0771
    123  CG        -7.5300   44.2960   -1.5050 C.ar  156  HIS156      0.0820
    124  ND1       -7.2530   45.0650   -0.3890 N.ar  156  HIS156     -0.2267
    125  CD2       -8.1990   45.1100   -2.3580 C.ar  156  HIS156      0.1154
    126  CE1       -7.7490   46.2780   -0.5550 C.ar  156  HIS156      0.1986
    127  NE2       -8.3390   46.3300   -1.7350 N.ar  156  HIS156     -0.2212
    128  N        -12.5490   40.1700   -1.0340 N.3   159  LEU159     -0.1231
    129  CA       -13.1200   40.8430    0.1420 C.3   159  LEU159      0.1693
    130  C        -13.7260   42.2150   -0.1420 C.2   159  LEU159      0.2592
    131  O        -14.7230   42.5680    0.4930 O.2   159  LEU159     -0.2718
    132  CB       -12.1510   40.9210    1.3060 C.3   159  LEU159      0.0284
    133  CG       -11.6280   39.6390    1.9500 C.3   159  LEU159      0.0019
    134  CD1      -10.4290   39.9920    2.7910 C.3   159  LEU159      0.0001
    135  CD2      -12.6470   38.8550    2.7830 C.3   159  LEU159      0.0001
    136  N        -13.1680   42.9850   -1.0840 N.am  160  PHE160     -0.1976
    137  CA       -13.5320   44.4060   -1.2280 C.3   160  PHE160      0.1639
    138  C        -14.0640   44.8580   -2.5800 C.2   160  PHE160      0.2290
    139  O        -14.4630   45.9820   -2.7020 O.2   160  PHE160     -0.2864
    140  CB       -12.3560   45.3050   -0.7970 C.3   160  PHE160      0.0560
    141  CG       -11.8450   44.9740    0.5830 C.ar  160  PHE160     -0.0200
    142  CD1      -12.6860   45.1100    1.7130 C.ar  160  PHE160     -0.0042
    143  CD2      -10.5410   44.4740    0.7560 C.ar  160  PHE160     -0.0042
    144  CE1      -12.2110   44.7550    2.9980 C.ar  160  PHE160     -0.0003
    145  CE2      -10.0660   44.1490    2.0070 C.ar  160  PHE160     -0.0003
    146  CZ       -10.8920   44.2770    3.1280 C.ar  160  PHE160     -0.0000
@<TRIPOS>BOND
     1   103   104    2
     2   103   102    1
     3   139   138    2
     4   138   137    1
     5   101   102    1
     6   120   121    2
     7   120   119    1
     8   125   127   ar
     9   125   123   ar
    10   109   110    1
    11   102   105    1
    12   127   126   ar
    13   105   106    1
    14   122   123    1
    15   122   119    1
    16   123   124   ar
    17   118   119    1
    18   118   111   am
    19    96    95    2
    20   137   136    1
    21   137   140    1
    22   136   130   am
    23   128   129    1
    24   111   110    1
    25   111   112    2
    26   110   113    1
    27   106   107    1
    28   106   108    1
    29   140   141    1
    30   126   124   ar
    31    99    98    1
    32    95    94    1
    33    97    98    1
    34    97    94    1
    35   130   129    1
    36   130   131    2
    37   116   115    2
    38   129   132    1
    39   100    98    1
    40   113   114    1
    41    94    93    1
    42   141   143   ar
    43   141   142   ar
    44   114   115    1
    45   143   145   ar
    46   115   117   am
    47   132   133    1
    48   142   144   ar
    49    93    84   am
    50   133   135    1
    51   133   134    1
    52   145   146   ar
    53    81    80    1
    54    79    78    2
    55    85    84    2
    56    28    26   ar
    57    28    27   ar
    58    78    77    1
    59    84    83    1
    60    26    24   ar
    61    80    77    1
    62   144   146   ar
    63    27    25   ar
    64    91    89   ar
    65    91    92   ar
    66    24    23   ar
    67    89    87   ar
    68    77    76    1
    69    92    90   ar
    70    83    82    1
    71    83    86    1
    72    25    23   ar
    73    23    22    1
    74    87    86    1
    75    87    88   ar
    76    76    71   am
    77    90    88   ar
    78     7     6    1
    79    22    19    1
    80    66    65    2
    81    65    64    1
    82    46    44   ar
    83    46    47   ar
    84    72    71    2
    85    71    70    1
    86     1     2    1
    87     6     5    1
    88     6     8    1
    89     4     3    2
    90     5     2    1
    91    44    42   ar
    92    69    70    1
    93    47    45   ar
    94    19    20    1
    95    19    18    1
    96    21    20    2
    97     2     3    1
    98    70    73    1
    99    64    63    1
   100    64    67    1
   101    42    41    1
   102    42    43   ar
   103    18    11   am
   104    45    43   ar
   105    73    75    1
   106    73    74    1
   107    41    38    1
   108    67    68    1
   109    39    40    2
   110    39    38    1
   111    57    56    1
   112    57    58    2
   113    11    12    2
   114    11    10    1
   115    56    55    1
   116    56    59    1
   117    61    60    2
   118    38    37    1
   119    55    50   am
   120    37    31   am
   121    13    10    1
   122    13    14    1
   123    48    49    1
   124    10     9    1
   125    59    60    1
   126    29    30    1
   127    16    15    2
   128    60    62   am
   129    50    49    1
   130    50    51    2
   131    49    52    1
   132    31    32    2
   133    31    30    1
   134    15    14    1
   135    15    17   am
   136    30    33    1
   137    52    54    1
   138    52    53    1
   139    33    34    1
   140    35    34   ar
   141    34    36   ar
