@<TRIPOS>MOLECULE
tmp/2q8iA01.pdb
 114 101 0 0 0
SMALL
GASTEIGER

@<TRIPOS>ATOM
      1  N        -54.5980   21.1890   74.2220 N.3   234  LEU234     -0.1245
      2  CA       -54.6110   21.8390   72.9310 C.3   234  LEU234      0.1561
      3  C        -53.9850   23.2440   73.0590 C.2   234  LEU234      0.2260
      4  O        -53.1940   23.6390   72.2130 O.2   234  LEU234     -0.2867
      5  CB       -56.0510   21.9040   72.3970 C.3   234  LEU234      0.0270
      6  CG       -56.7240   20.5110   72.2530 C.3   234  LEU234      0.0019
      7  CD1      -58.2280   20.6190   71.7500 C.3   234  LEU234      0.0001
      8  CD2      -55.9250   19.6260   71.3020 C.3   234  LEU234      0.0001
      9  N        -50.2620   23.0820   73.3930 N.3   237  ASN237     -0.1225
     10  CA       -49.6150   22.7840   72.1250 C.3   237  ASN237      0.1785
     11  C        -49.6300   23.9850   71.2080 C.2   237  ASN237      0.2597
     12  O        -48.6360   24.2840   70.5090 O.2   237  ASN237     -0.2718
     13  CB       -50.2810   21.5750   71.4070 C.3   237  ASN237      0.1169
     14  CG       -50.1140   20.2890   72.1890 C.2   237  ASN237      0.2627
     15  OD1      -49.3050   20.2310   73.0730 O.2   237  ASN237     -0.2716
     16  ND2      -50.9110   19.2920   71.9040 N.am  237  ASN237     -0.0877
     17  N        -50.7580   24.6920   71.1920 N.am  238  SER238     -0.1952
     18  CA       -50.8550   25.9070   70.3840 C.3   238  SER238      0.1924
     19  C        -49.8420   26.9890   70.8000 C.2   238  SER238      0.2314
     20  O        -49.1800   27.6340   69.9280 O.2   238  SER238     -0.2863
     21  CB       -52.2690   26.4360   70.4270 C.3   238  SER238      0.2116
     22  OG       -53.0390   25.7090   69.4830 O.3   238  SER238     -0.2180
     23  N        -47.0100   26.6480   72.5780 N.3   240  ARG240     -0.1231
     24  CA       -45.6850   26.1830   72.3130 C.3   240  ARG240      0.1694
     25  C        -45.3700   26.2810   70.8310 C.2   240  ARG240      0.2591
     26  O        -44.2600   26.6860   70.4570 O.2   240  ARG240     -0.2718
     27  CB       -45.5440   24.7600   72.8240 C.3   240  ARG240      0.0321
     28  CG       -44.2360   24.1200   72.4500 C.3   240  ARG240      0.0489
     29  CD       -43.9530   22.9810   73.3720 C.3   240  ARG240      0.2205
     30  NE       -42.6500   22.3920   73.0770 N.pl3 240  ARG240     -0.0865
     31  CZ       -42.4410   21.0790   73.0370 C.cat 240  ARG240      0.5346
     32  NH1      -43.4720   20.2390   73.2550 N.pl3 240  ARG240      0.1354
     33  NH2      -41.2250   20.6050   72.7540 N.pl3 240  ARG240      0.1354
     34  N        -46.3410   25.9390   69.9820 N.am  241  ALA241     -0.1980
     35  CA       -46.1350   26.0990   68.5460 C.3   241  ALA241      0.1597
     36  C        -45.8970   27.5760   68.1120 C.2   241  ALA241      0.2287
     37  O        -44.9990   27.8700   67.2970 O.2   241  ALA241     -0.2864
     38  CB       -47.2900   25.4760   67.7430 C.3   241  ALA241      0.0319
     39  N        -42.5900   29.0520   69.5760 N.3   244  GLU244     -0.1245
     40  CA       -41.3620   28.5330   68.9360 C.3   244  GLU244      0.1567
     41  C        -41.1430   29.0830   67.5310 C.2   244  GLU244      0.2260
     42  O        -40.0190   29.3840   67.1510 O.2   244  GLU244     -0.2867
     43  CB       -41.2050   27.0120   69.0570 C.3   244  GLU244      0.0388
     44  CG       -41.1530   26.5960   70.5270 C.3   244  GLU244      0.1160
     45  CD       -40.6080   25.1880   70.8440 C.2   244  GLU244      0.3649
     46  OE1      -40.9500   24.1990   70.1560 O.co2 244  GLU244     -0.2457
     47  OE2      -39.8490   25.0670   71.8450 O.co2 244  GLU244     -0.2457
     48  N        -59.9150   25.4430   68.1360 N.3   271  ILE271     -0.1245
     49  CA       -58.7310   26.2050   68.5070 C.3   271  ILE271      0.1561
     50  C        -57.8120   26.3980   67.2910 C.2   271  ILE271      0.2260
     51  O        -57.3360   25.4220   66.6740 O.2   271  ILE271     -0.2867
     52  CB       -58.0340   25.5030   69.6310 C.3   271  ILE271      0.0252
     53  CG1      -58.9880   25.4670   70.8090 C.3   271  ILE271      0.0019
     54  CG2      -56.7330   26.1830   70.0200 C.3   271  ILE271      0.0019
     55  CD1      -58.5420   24.6090   71.8990 C.3   271  ILE271      0.0001
     56  N        -54.3130   28.1330   65.6110 N.3   273  ASP273     -0.1239
     57  CA       -53.0330   28.7800   65.8500 C.3   273  ASP273      0.1674
     58  C        -52.2880   28.9990   64.5660 C.2   273  ASP273      0.2266
     59  O        -52.6300   28.4180   63.5370 O.2   273  ASP273     -0.2867
     60  CB       -52.2190   28.0140   66.9020 C.3   273  ASP273      0.1410
     61  CG       -51.6560   26.6970   66.3760 C.2   273  ASP273      0.3668
     62  OD1      -50.9610   26.7360   65.3140 O.co2 273  ASP273     -0.2456
     63  OD2      -51.9000   25.6450   67.0500 O.co2 273  ASP273     -0.2456
     64  N        -48.9120   28.4180   64.3250 N.3   275  GLY275     -0.1225
     65  CA       -47.6850   27.9490   64.8650 C.3   275  GLY275      0.1811
     66  C        -46.8750   27.2040   63.8640 C.2   275  GLY275      0.2280
     67  O        -45.9520   26.4930   64.2460 O.2   275  GLY275     -0.2866
     68  N        -47.8420   24.6760   61.8040 N.3   277  GLY277     -0.1210
     69  CA       -48.5180   23.4240   61.3400 C.3   277  GLY277      0.1956
     70  C        -47.6380   22.1620   61.3160 C.2   277  GLY277      0.2611
     71  O        -46.4770   22.1870   61.7570 O.2   277  GLY277     -0.2717
     72  N        -48.2000   21.0740   60.7710 N.am  278  VAL278     -0.1979
     73  CA       -47.5790   19.7770   60.7010 C.3   278  VAL278      0.1595
     74  C        -47.8980   19.1270   59.3760 C.2   278  VAL278      0.2287
     75  O        -49.0580   19.1260   58.9680 O.2   278  VAL278     -0.2864
     76  CB       -48.2300   18.7990   61.6900 C.3   278  VAL278      0.0276
     77  CG1      -47.1930   18.0070   62.3880 C.3   278  VAL278      0.0022
     78  CG2      -48.9950   19.5030   62.6880 C.3   278  VAL278      0.0022
     79  N        -49.4200   11.2970   65.6010 N.3   286  LEU286     -0.1245
     80  CA       -49.5000   12.1140   66.8120 C.3   286  LEU286      0.1561
     81  C        -50.4170   11.5380   67.8380 C.2   286  LEU286      0.2260
     82  O        -50.4120   11.9970   68.9700 O.2   286  LEU286     -0.2867
     83  CB       -50.0200   13.4860   66.4900 C.3   286  LEU286      0.0270
     84  CG       -49.1720   14.2690   65.4870 C.3   286  LEU286      0.0019
     85  CD1      -49.9190   15.5690   65.1750 C.3   286  LEU286      0.0001
     86  CD2      -47.7600   14.5170   66.0560 C.3   286  LEU286      0.0001
     87  N        -52.3840   14.3250   73.7590 N.3   296  LEU296     -0.1245
     88  CA       -53.3410   14.5330   72.6950 C.3   296  LEU296      0.1561
     89  C        -54.2200   13.2520   72.4680 C.2   296  LEU296      0.2260
     90  O        -55.4370   13.3580   72.3300 O.2   296  LEU296     -0.2867
     91  CB       -52.6540   15.0180   71.4210 C.3   296  LEU296      0.0270
     92  CG       -53.4390   14.8560   70.1190 C.3   296  LEU296      0.0019
     93  CD1      -54.5660   15.8410   69.9830 C.3   296  LEU296      0.0001
     94  CD2      -52.5360   14.9210   68.9290 C.3   296  LEU296      0.0001
     95  N        -58.0070   16.9320   64.2930 N.3   312  LEU312     -0.1245
     96  CA       -56.8990   17.8560   64.0210 C.3   312  LEU312      0.1561
     97  C        -56.7000   18.0140   62.5520 C.2   312  LEU312      0.2260
     98  O        -56.6430   17.0230   61.8080 O.2   312  LEU312     -0.2867
     99  CB       -55.5820   17.2980   64.4800 C.3   312  LEU312      0.0270
    100  CG       -54.7280   17.6810   65.6730 C.3   312  LEU312      0.0019
    101  CD1      -53.3210   17.2080   65.3270 C.3   312  LEU312      0.0001
    102  CD2      -54.7150   19.1300   66.0710 C.3   312  LEU312      0.0001
    103  N        -52.4340   25.2870   62.5390 N.3   320  THR320     -0.1218
    104  CA       -53.1900   24.1390   62.8820 C.3   320  THR320      0.1862
    105  C        -54.5520   24.4830   63.5710 C.2   320  THR320      0.2287
    106  O        -54.6000   25.3350   64.4990 O.2   320  THR320     -0.2866
    107  CB       -52.3630   23.2510   63.8760 C.3   320  THR320      0.1770
    108  OG1      -51.1750   22.7910   63.2080 O.3   320  THR320     -0.2211
    109  CG2      -53.1960   22.0590   64.3820 C.3   320  THR320      0.0375
    110  N        -57.6320   22.6100   65.8630 N.3   322  ALA322     -0.1245
    111  CA       -57.9810   21.4300   66.6170 C.3   322  ALA322      0.1562
    112  C        -59.4520   21.6300   67.0580 C.2   322  ALA322      0.2260
    113  O        -59.8570   22.7470   67.5080 O.2   322  ALA322     -0.2867
    114  CB       -57.1050   21.2740   67.7660 C.3   322  ALA322      0.0290
@<TRIPOS>BOND
     1    75    74    2
     2    74    73    1
     3    73    72    1
     4    73    76    1
     5    72    70   am
     6    70    69    1
     7    70    71    2
     8    69    68    1
     9    76    77    1
    10    76    78    1
    11    98    97    2
    12   103   104    1
    13    97    96    1
    14   104   105    1
    15   104   107    1
    16   108   107    1
    17    59    58    2
    18   105   106    2
    19    66    67    2
    20    66    65    1
    21   107   109    1
    22    96    95    1
    23    96    99    1
    24    64    65    1
    25    99   100    1
    26    58    57    1
    27    85    84    1
    28    62    61   ar
    29   101   100    1
    30    84    86    1
    31    84    83    1
    32    79    80    1
    33    56    57    1
    34   100   102    1
    35    57    60    1
    36   110   111    1
    37    61    60    1
    38    61    63   ar
    39    83    80    1
    40   111   112    1
    41   111   114    1
    42    51    50    2
    43    80    81    1
    44   112   113    2
    45    42    41    2
    46    50    49    1
    47    37    36    2
    48    41    40    1
    49    38    35    1
    50    81    82    2
    51    36    35    1
    52    48    49    1
    53    49    52    1
    54    35    34    1
    55    94    92    1
    56    40    43    1
    57    40    39    1
    58    43    44    1
    59    22    21    1
    60    52    54    1
    61    52    53    1
    62    20    19    2
    63    34    25   am
    64    93    92    1
    65    92    91    1
    66    46    45   ar
    67    18    21    1
    68    18    19    1
    69    18    17    1
    70    26    25    2
    71    12    11    2
    72    44    45    1
    73    53    55    1
    74    25    24    1
    75    45    47   ar
    76    17    11   am
    77    11    10    1
    78     8     6    1
    79    13    10    1
    80    13    14    1
    81    91    88    1
    82     7     6    1
    83    16    14   am
    84    10     9    1
    85    14    15    2
    86     4     3    2
    87     6     5    1
    88    24    23    1
    89    24    27    1
    90    90    89    2
    91     5     2    1
    92    28    27    1
    93    28    29    1
    94    89    88    1
    95    88    87    1
    96    33    31    1
    97     2     3    1
    98     2     1    1
    99    31    30    2
   100    31    32    1
   101    30    29    1
