@<TRIPOS>MOLECULE
tmp/2q8jA03.pdb
 87 85 0 0 0
SMALL
GASTEIGER

@<TRIPOS>ATOM
      1  N         18.4340   15.9510   10.8230 N.3    89  THR89      -0.1203
      2  CA        18.1410   14.5380   10.6050 C.3    89  THR89       0.1994
      3  C         16.7040   14.4050   10.0920 C.2    89  THR89       0.2618
      4  O         15.8170   15.0690   10.5990 O.2    89  THR89      -0.2717
      5  CB        18.3420   13.6930   11.8780 C.3    89  THR89       0.1784
      6  OG1       17.3710   14.0600   12.8510 O.3    89  THR89      -0.2211
      7  CG2       19.7330   13.8740   12.4440 C.3    89  THR89       0.0376
      8  N         16.4720   13.5340    9.1030 N.am   90  GLU90      -0.1965
      9  CA        15.1500   13.4800    8.5040 C.3    90  GLU90       0.1733
     10  C         14.2310   12.4610    9.0800 C.2    90  GLU90       0.2616
     11  O         13.0330   12.5530    8.8680 O.2    90  GLU90      -0.2715
     12  CB        15.2050   13.3540    6.9830 C.3    90  GLU90       0.0429
     13  CG        15.5790   14.6750    6.2510 C.3    90  GLU90       0.1163
     14  CD        16.0810   14.4060    4.8440 C.2    90  GLU90       0.3649
     15  OE1       15.4600   13.5730    4.1530 O.co2  90  GLU90      -0.2457
     16  OE2       17.0910   15.0000    4.4100 O.co2  90  GLU90      -0.2457
     17  N         14.7250   11.5000    9.8330 N.am   91  GLY91      -0.1955
     18  CA        13.7470   10.5580   10.3890 C.3    91  GLY91       0.1869
     19  C         13.5450    9.4010    9.4300 C.2    91  GLY91       0.2309
     20  O         13.6580    9.5570    8.2020 O.2    91  GLY91      -0.2863
     21  N          6.5560    8.2810   11.0110 N.3   250  VAL250     -0.1245
     22  CA         7.9670    8.6330   10.7590 C.3   250  VAL250      0.1561
     23  C          8.6870    8.6270   12.1200 C.2   250  VAL250      0.2260
     24  O          8.1840    9.0950   13.0990 O.2   250  VAL250     -0.2867
     25  CB         8.0580    9.9300    9.9310 C.3   250  VAL250      0.0252
     26  CG1        6.6330   10.4910    9.7720 C.3   250  VAL250      0.0019
     27  CG2        8.9690   10.8970   10.5750 C.3   250  VAL250      0.0019
     28  N         11.8610    9.0060   14.9180 N.3   252  PRO252     -0.2102
     29  CA        13.0600    9.7810   15.0920 C.3   252  PRO252      0.1504
     30  C         14.2900    8.8960   14.8980 C.2   252  PRO252      0.2575
     31  O         14.3280    7.7560   15.3350 O.2   252  PRO252     -0.2718
     32  CB        12.9090   10.2900   16.5010 C.3   252  PRO252      0.0282
     33  CG        12.1260    9.3190   17.1750 C.3   252  PRO252      0.0208
     34  CD        11.1610    8.7760   16.1820 C.3   252  PRO252      0.0893
     35  N         15.2890    9.3830   14.1790 N.am  253  ASN253     -0.1975
     36  CA        16.5890    8.6570   14.0680 C.3   253  ASN253      0.1688
     37  C         17.1780    8.0860   15.3940 C.2   253  ASN253      0.2292
     38  O         16.9670    8.5900   16.4910 O.2   253  ASN253     -0.2864
     39  CB        17.6440    9.5440   13.3780 C.3   253  ASN253      0.1181
     40  CG        17.2550    9.8850   11.9780 C.2   253  ASN253      0.2629
     41  OD1       16.3320    9.3230   11.4820 O.2   253  ASN253     -0.2716
     42  ND2       17.9950   10.7470   11.3090 N.am  253  ASN253     -0.0877
     43  N         13.8630   15.7600   21.6510 N.3   319  TYR319     -0.1227
     44  CA        14.4810   14.9480   20.5630 C.3   319  TYR319      0.1736
     45  C         13.4390   13.9770   19.9780 C.2   319  TYR319      0.2595
     46  O         13.2180   14.0020   18.7620 O.2   319  TYR319     -0.2718
     47  CB        15.8380   14.2900   20.9190 C.3   319  TYR319      0.0548
     48  CG        16.3570   13.4360   19.8190 C.ar  319  TYR319     -0.0200
     49  CD1       17.1630   13.9780   18.8370 C.ar  319  TYR319     -0.0009
     50  CD2       15.9850   12.0930   19.7270 C.ar  319  TYR319     -0.0009
     51  CE1       17.5890   13.2150   17.7810 C.ar  319  TYR319      0.0417
     52  CE2       16.3720   11.3420   18.7000 C.ar  319  TYR319      0.0417
     53  CZ        17.1660   11.9050   17.7310 C.ar  319  TYR319      0.1957
     54  OH        17.5890   11.1180   16.7210 O.3   319  TYR319     -0.2866
     55  N         12.7900   13.1510   20.8110 N.am  320  LEU320     -0.1966
     56  CA        11.7730   12.2040   20.2980 C.3   320  LEU320      0.1728
     57  C         10.5040   12.8370   19.6760 C.2   320  LEU320      0.2616
     58  O          9.8480   12.2020   18.8280 O.2   320  LEU320     -0.2715
     59  CB        11.3610   11.2230   21.3770 C.3   320  LEU320      0.0311
     60  CG        12.4090   10.2900   21.9080 C.3   320  LEU320      0.0022
     61  CD1       11.7540    9.6700   23.1310 C.3   320  LEU320      0.0001
     62  CD2       12.8960    9.2330   20.8860 C.3   320  LEU320      0.0001
     63  N         10.1630   14.0530   20.1160 N.am  321  GLY321     -0.1955
     64  CA         8.9150   14.7260   19.7280 C.3   321  GLY321      0.1869
     65  C          7.7010   14.3660   20.5600 C.2   321  GLY321      0.2309
     66  O          7.6480   13.2960   21.1190 O.2   321  GLY321     -0.2863
     67  N          4.4120   13.9600   19.6020 N.3   323  GLU323     -0.1231
     68  CA         3.6840   12.8770   18.9160 C.3   323  GLU323      0.1699
     69  C          4.0910   11.5300   19.4790 C.2   323  GLU323      0.2592
     70  O          3.3130   10.8880   20.2000 O.2   323  GLU323     -0.2718
     71  CB         3.9270   12.8990   17.4020 C.3   323  GLU323      0.0402
     72  CG         2.9380   13.7600   16.6710 C.3   323  GLU323      0.1161
     73  CD         1.5700   13.8360   17.4160 C.2   323  GLU323      0.3649
     74  OE1        0.5170   14.0020   16.7300 O.co2 323  GLU323     -0.2457
     75  OE2        1.5380   13.7350   18.6870 O.co2 323  GLU323     -0.2457
     76  N          5.3420   11.1500   19.2070 N.am  324  TYR324     -0.1976
     77  CA         5.9170    9.9050   19.7210 C.3   324  TYR324      0.1639
     78  C          5.8880    9.7420   21.2490 C.2   324  TYR324      0.2290
     79  O          5.5740    8.6480   21.7260 O.2   324  TYR324     -0.2864
     80  CB         7.3020    9.6670   19.1510 C.3   324  TYR324      0.0560
     81  CG         7.8470    8.2850   19.3380 C.ar  324  TYR324     -0.0198
     82  CD1        7.1100    7.1420   19.0150 C.ar  324  TYR324     -0.0009
     83  CD2        9.1610    8.1170   19.7720 C.ar  324  TYR324     -0.0009
     84  CE1        7.7010    5.8550   19.1950 C.ar  324  TYR324      0.0417
     85  CE2        9.7450    6.8690   19.9220 C.ar  324  TYR324      0.0417
     86  CZ         9.0430    5.7390   19.6540 C.ar  324  TYR324      0.1957
     87  OH         9.7090    4.5210   19.8600 O.3   324  TYR324     -0.2866
@<TRIPOS>BOND
     1    15    14   ar
     2    16    14   ar
     3    14    13    1
     4    13    12    1
     5    12     9    1
     6    20    19    2
     7     9    10    1
     8     9     8    1
     9    11    10    2
    10    10    17   am
    11     8     3   am
    12    19    18    1
    13    26    25    1
    14    17    18    1
    15    25    27    1
    16    25    22    1
    17     3     4    2
    18     3     2    1
    19     2     1    1
    20     2     5    1
    21    22    21    1
    22    22    23    1
    23    42    40   am
    24    41    40    2
    25     5     7    1
    26     5     6    1
    27    40    39    1
    28    23    24    2
    29    39    36    1
    30    36    35    1
    31    36    37    1
    32    35    30   am
    33    30    29    1
    34    30    31    2
    35    28    29    1
    36    28    34    1
    37    29    32    1
    38    37    38    2
    39    34    33    1
    40    32    33    1
    41    72    71    1
    42    72    73    1
    43    54    53    1
    44    74    73   ar
    45    71    68    1
    46    73    75   ar
    47    53    51   ar
    48    53    52   ar
    49    51    49   ar
    50    52    50   ar
    51    46    45    2
    52    58    57    2
    53    49    48   ar
    54    68    69    1
    55    68    67    1
    56    82    84   ar
    57    82    81   ar
    58    80    81    1
    59    80    77    1
    60    84    86   ar
    61    76    69   am
    62    76    77    1
    63    81    83   ar
    64    69    70    2
    65    86    87    1
    66    86    85   ar
    67    57    63   am
    68    57    56    1
    69    77    78    1
    70    50    48   ar
    71    64    63    1
    72    64    65    1
    73    83    85   ar
    74    48    47    1
    75    45    44    1
    76    45    55   am
    77    56    55    1
    78    56    59    1
    79    65    66    2
    80    44    47    1
    81    44    43    1
    82    62    60    1
    83    78    79    2
    84    59    60    1
    85    60    61    1
