@<TRIPOS>MOLECULE
tmp/2q8mA01.pdb
 155 147 0 0 0
SMALL
GASTEIGER

@<TRIPOS>ATOM
      1  N         98.4860   58.9290    3.1540 N.3    66  GLU66      -0.1245
      2  CA        98.4240   58.8700    1.7010 C.3    66  GLU66       0.1567
      3  C         97.1220   59.4020    1.1030 C.2    66  GLU66       0.2260
      4  O         97.1450   60.1180    0.1010 O.2    66  GLU66      -0.2867
      5  CB        98.6880   57.4290    1.2450 C.3    66  GLU66       0.0388
      6  CG        98.7510   57.2310   -0.2600 C.3    66  GLU66       0.1160
      7  CD        97.4130   56.8340   -0.8450 C.2    66  GLU66       0.3649
      8  OE1       96.8660   55.7860   -0.4260 O.co2  66  GLU66      -0.2457
      9  OE2       96.9100   57.5670   -1.7230 O.co2  66  GLU66      -0.2457
     10  N        100.8220   54.9630    4.5470 N.3    86  ASP86      -0.1239
     11  CA        99.9420   54.4430    3.5180 C.3    86  ASP86       0.1674
     12  C         99.2940   53.3010    4.2990 C.2    86  ASP86       0.2266
     13  O         99.7580   52.1650    4.2590 O.2    86  ASP86      -0.2867
     14  CB       100.7570   53.9170    2.3340 C.3    86  ASP86       0.1410
     15  CG        99.8880   53.5170    1.1590 C.2    86  ASP86       0.3668
     16  OD1      100.4460   53.1510    0.1010 O.co2  86  ASP86      -0.2456
     17  OD2       98.6460   53.5650    1.2930 O.co2  86  ASP86      -0.2456
     18  N         96.6810   51.4760    3.9020 N.3    88  LEU88      -0.1231
     19  CA        96.2910   50.3190    3.1130 C.3    88  LEU88       0.1693
     20  C         96.8060   50.4390    1.6880 C.2    88  LEU88       0.2592
     21  O         96.2040   51.1100    0.8550 O.2    88  LEU88      -0.2718
     22  CB        94.7700   50.1740    3.1090 C.3    88  LEU88       0.0284
     23  CG        94.2130   48.9270    3.7980 C.3    88  LEU88       0.0019
     24  CD1       92.6910   48.9810    3.8150 C.3    88  LEU88       0.0001
     25  CD2       94.6950   47.6860    3.0680 C.3    88  LEU88       0.0001
     26  N         97.9330   49.7890    1.4260 N.am   89  ASP89      -0.1960
     27  CA        98.5540   49.8020    0.1110 C.3    89  ASP89       0.1840
     28  C         97.9360   48.6740   -0.7130 C.2    89  ASP89       0.2623
     29  O         97.7660   47.5610   -0.2160 O.2    89  ASP89      -0.2715
     30  CB       100.0610   49.5900    0.2590 C.3    89  ASP89       0.1450
     31  CG       100.7700   49.5170   -1.0700 C.2    89  ASP89       0.3671
     32  OD1      100.7770   50.5390   -1.7920 O.co2  89  ASP89      -0.2456
     33  OD2      101.3180   48.4390   -1.3910 O.co2  89  ASP89      -0.2456
     34  N         97.6060   48.9640   -1.9660 N.am   90  GLY90      -0.1940
     35  CA        96.9920   47.9630   -2.8190 C.3    90  GLY90       0.2014
     36  C         95.5410   47.7690   -2.4170 C.2    90  GLY90       0.2640
     37  O         94.9890   46.6770   -2.5470 O.2    90  GLY90      -0.2714
     38  N         94.9280   48.8420   -1.9260 N.am   91  SER91      -0.1935
     39  CA        93.5390   48.8270   -1.4730 C.3    91  SER91       0.2055
     40  C         92.6260   47.9450   -2.3250 C.2    91  SER91       0.2643
     41  O         91.8690   47.1330   -1.7950 O.2    91  SER91      -0.2714
     42  CB        92.9930   50.2590   -1.4320 C.3    91  SER91       0.2130
     43  OG        93.1220   50.8910   -2.6960 O.3    91  SER91      -0.2179
     44  N         92.7090   48.1050   -3.6400 N.am   92  SER92      -0.1949
     45  CA        91.9030   47.3290   -4.5780 C.3    92  SER92       0.1924
     46  C         91.8570   45.8290   -4.2530 C.2    92  SER92       0.2314
     47  O         90.7870   45.2090   -4.2620 O.2    92  SER92      -0.2863
     48  CB        92.4570   47.5100   -5.9910 C.3    92  SER92       0.2116
     49  OG        92.7190   48.8760   -6.2610 O.3    92  SER92      -0.2180
     50  N        103.2130   46.9540  -14.4430 N.3   180  ASN180     -0.1240
     51  CA       101.8870   46.8430  -15.0460 C.3   180  ASN180      0.1653
     52  C        102.0100   47.2060  -16.5230 C.2   180  ASN180      0.2266
     53  O        101.9570   48.3800  -16.8840 O.2   180  ASN180     -0.2867
     54  CB       100.9100   47.8040  -14.3700 C.3   180  ASN180      0.1155
     55  CG        99.5080   47.7210  -14.9550 C.2   180  ASN180      0.2627
     56  OD1       99.2900   47.1020  -15.9980 O.2   180  ASN180     -0.2716
     57  ND2       98.5550   48.3510  -14.2880 N.am  180  ASN180     -0.0877
     58  N         99.8930   49.7070  -19.0810 N.3   183  ASN183     -0.1240
     59  CA       100.2390   51.0920  -19.4120 C.3   183  ASN183      0.1653
     60  C        101.4450   51.1820  -20.3560 C.2   183  ASN183      0.2266
     61  O        102.1110   52.2160  -20.4270 O.2   183  ASN183     -0.2867
     62  CB       100.5650   51.8700  -18.1330 C.3   183  ASN183      0.1155
     63  CG        99.4510   51.8040  -17.1170 C.2   183  ASN183      0.2627
     64  OD1       98.2870   52.0140  -17.4510 O.2   183  ASN183     -0.2716
     65  ND2       99.8000   51.5200  -15.8640 N.am  183  ASN183     -0.0877
     66  N        103.2110   40.5140  -10.8380 N.3   213  TYR213     -0.1241
     67  CA       102.6680   41.8190  -10.4770 C.3   213  TYR213      0.1605
     68  C        101.3440   41.6200   -9.7270 C.2   213  TYR213      0.2264
     69  O        100.2800   41.4810  -10.3320 O.2   213  TYR213     -0.2867
     70  CB       102.4380   42.6730  -11.7270 C.3   213  TYR213      0.0534
     71  CG       102.2130   44.1440  -11.4340 C.ar  213  TYR213     -0.0201
     72  CD1      103.2650   44.9630  -11.0070 C.ar  213  TYR213     -0.0009
     73  CD2      100.9580   44.7280  -11.6190 C.ar  213  TYR213     -0.0009
     74  CE1      103.0700   46.3330  -10.7760 C.ar  213  TYR213      0.0417
     75  CE2      100.7520   46.0920  -11.3920 C.ar  213  TYR213      0.0417
     76  CZ       101.8110   46.8880  -10.9740 C.ar  213  TYR213      0.1957
     77  OH       101.6140   48.2370  -10.7730 O.3   213  TYR213     -0.2866
     78  N         99.8880   43.8170   -7.6900 N.3   215  GLY215     -0.1210
     79  CA        99.0500   45.0070   -7.6930 C.3   215  GLY215      0.1956
     80  C         99.1510   45.7550   -6.3780 C.2   215  GLY215      0.2613
     81  O         98.4740   46.7630   -6.1540 O.2   215  GLY215     -0.2717
     82  N         99.9920   45.2330   -5.4930 N.am  216  SER216     -0.1938
     83  CA       100.2450   45.8410   -4.1930 C.3   216  SER216      0.2055
     84  C        101.7490   46.0830   -4.1080 C.2   216  SER216      0.2642
     85  O        102.5330   45.1380   -4.1570 O.2   216  SER216     -0.2714
     86  CB        99.8180   44.9000   -3.0660 C.3   216  SER216      0.2130
     87  OG       100.4580   45.2510   -1.8460 O.3   216  SER216     -0.2179
     88  N        102.1440   47.3470   -3.9980 N.am  217  LEU217     -0.1977
     89  CA       103.5580   47.7130   -3.9000 C.3   217  LEU217      0.1596
     90  C        104.2280   46.8650   -2.8260 C.2   217  LEU217      0.2287
     91  O        105.2700   46.2530   -3.0550 O.2   217  LEU217     -0.2864
     92  CB       103.6940   49.1910   -3.5110 C.3   217  LEU217      0.0297
     93  CG       104.9630   49.9950   -3.8460 C.3   217  LEU217      0.0022
     94  CD1      105.0690   51.1650   -2.8770 C.3   217  LEU217      0.0001
     95  CD2      106.2060   49.1460   -3.7700 C.3   217  LEU217      0.0001
     96  N        110.8610   46.0460   -9.0170 N.3   231  TYR231     -0.1241
     97  CA       109.5200   46.5920   -9.1530 C.3   231  TYR231      0.1605
     98  C        109.6760   47.8820   -9.9370 C.2   231  TYR231      0.2264
     99  O        110.5810   48.6790   -9.6610 O.2   231  TYR231     -0.2867
    100  CB       108.9150   46.8950   -7.7770 C.3   231  TYR231      0.0534
    101  CG       107.6360   47.7170   -7.8280 C.ar  231  TYR231     -0.0201
    102  CD1      107.6810   49.1050   -7.9950 C.ar  231  TYR231     -0.0009
    103  CD2      106.3830   47.1070   -7.7140 C.ar  231  TYR231     -0.0009
    104  CE1      106.5180   49.8680   -8.0480 C.ar  231  TYR231      0.0417
    105  CE2      105.2000   47.8650   -7.7620 C.ar  231  TYR231      0.0417
    106  CZ       105.2780   49.2430   -7.9280 C.ar  231  TYR231      0.1957
    107  OH       104.1270   50.0040   -7.9770 O.3   231  TYR231     -0.2866
    108  N        107.5260   51.2980  -11.6750 N.3   233  TYR233     -0.1241
    109  CA       106.3430   52.0970  -11.9540 C.3   233  TYR233      0.1605
    110  C        106.8760   53.4010  -12.5320 C.2   233  TYR233      0.2264
    111  O        107.1760   54.3550  -11.8080 O.2   233  TYR233     -0.2867
    112  CB       105.4530   52.3590  -10.7290 C.3   233  TYR233      0.0534
    113  CG       104.0090   52.5330  -11.1790 C.ar  233  TYR233     -0.0201
    114  CD1      103.6960   53.4190  -12.2160 C.ar  233  TYR233     -0.0009
    115  CD2      102.9810   51.7400  -10.6610 C.ar  233  TYR233     -0.0009
    116  CE1      102.4120   53.5030  -12.7390 C.ar  233  TYR233      0.0417
    117  CE2      101.6780   51.8200  -11.1810 C.ar  233  TYR233      0.0417
    118  CZ       101.4100   52.7050  -12.2280 C.ar  233  TYR233      0.1957
    119  OH       100.1580   52.7730  -12.8010 O.3   233  TYR233     -0.2866
    120  N         99.7180   58.8210  -15.7260 N.3   239  HIS239     -0.1241
    121  CA       100.5280   59.4690  -14.6960 C.3   239  HIS239      0.1621
    122  C        101.8820   59.8490  -15.2880 C.2   239  HIS239      0.2264
    123  O        102.8580   59.1150  -15.1480 O.2   239  HIS239     -0.2867
    124  CB       100.7310   58.5320  -13.4990 C.3   239  HIS239      0.0745
    125  CG        99.4590   58.1290  -12.8190 C.ar  239  HIS239      0.0817
    126  ND1       98.7940   56.9590  -13.1150 N.ar  239  HIS239     -0.2268
    127  CD2       98.7230   58.7490  -11.8650 C.ar  239  HIS239      0.1154
    128  CE1       97.7040   56.8740  -12.3720 C.ar  239  HIS239      0.1986
    129  NE2       97.6370   57.9470  -11.6050 N.ar  239  HIS239     -0.2212
    130  N        103.1290   57.1320  -10.9280 N.3   243  LYS243     -0.1231
    131  CA       101.9470   57.0490  -10.0810 C.3   243  LYS243      0.1693
    132  C        102.2200   57.1310   -8.5830 C.2   243  LYS243      0.2591
    133  O        101.5230   57.8430   -7.8600 O.2   243  LYS243     -0.2718
    134  CB       101.1670   55.7600  -10.3540 C.3   243  LYS243      0.0285
    135  CG        99.9480   55.6190   -9.4360 C.3   243  LYS243      0.0035
    136  CD        99.2560   54.2720   -9.5540 C.3   243  LYS243      0.0206
    137  CE        98.1030   54.1880   -8.5600 C.3   243  LYS243      0.1093
    138  NZ        97.4080   52.8820   -8.6130 N.3   243  LYS243     -0.1314
    139  N        103.2310   56.4040   -8.1190 N.am  244  LEU244     -0.1980
    140  CA       103.5500   56.3720   -6.6980 C.3   244  LEU244      0.1596
    141  C        103.8940   57.7290   -6.0990 C.2   244  LEU244      0.2287
    142  O        104.5490   58.5570   -6.7320 O.2   244  LEU244     -0.2864
    143  CB       104.7130   55.4060   -6.4340 C.3   244  LEU244      0.0297
    144  CG       104.5840   53.9490   -6.8950 C.3   244  LEU244      0.0022
    145  CD1      105.7730   53.1530   -6.3640 C.3   244  LEU244      0.0001
    146  CD2      103.2760   53.3510   -6.3910 C.3   244  LEU244      0.0001
    147  N        105.2340   56.4210   -0.3850 N.3   249  GLU249     -0.1245
    148  CA       105.5570   55.1180   -0.9430 C.3   249  GLU249      0.1567
    149  C        107.0180   54.9500   -1.3740 C.2   249  GLU249      0.2260
    150  O        107.6840   54.0160   -0.9360 O.2   249  GLU249     -0.2867
    151  CB       104.6210   54.8420   -2.1220 C.3   249  GLU249      0.0388
    152  CG       103.1460   54.8660   -1.7300 C.3   249  GLU249      0.1160
    153  CD       102.2140   54.8210   -2.9240 C.2   249  GLU249      0.3649
    154  OE1      101.4930   53.8120   -3.0730 O.co2 249  GLU249     -0.2457
    155  OE2      102.2030   55.7920   -3.7140 O.co2 249  GLU249     -0.2457
@<TRIPOS>BOND
     1    61    60    2
     2    60    59    1
     3    59    58    1
     4    59    62    1
     5    62    63    1
     6    64    63    2
     7    63    65   am
     8    53    52    2
     9    52    51    1
    10    56    55    2
    11   120   121    1
    12   122   123    2
    13   122   121    1
    14    51    50    1
    15    51    54    1
    16    55    54    1
    17    55    57   am
    18   121   124    1
    19   124   125    1
    20   126   125   ar
    21   126   128   ar
    22   125   127   ar
    23   119   118    1
    24   116   118   ar
    25   116   114   ar
    26   110   109    1
    27   110   111    2
    28   128   129   ar
    29   118   117   ar
    30   114   113   ar
    31   109   108    1
    32   109   112    1
    33   127   129   ar
    34    70    71    1
    35    70    67    1
    36    73    71   ar
    37    73    75   ar
    38    71    72   ar
    39    75    76   ar
    40   117   115   ar
    41   113   112    1
    42   113   115   ar
    43    72    74   ar
    44    76    74   ar
    45    76    77    1
    46   130   131    1
    47    66    67    1
    48    67    68    1
    49   134   131    1
    50   134   135    1
    51    69    68    2
    52   131   132    1
    53    98    99    2
    54    98    97    1
    55   136   135    1
    56   136   137    1
    57    97    96    1
    58    97   100    1
    59   138   137    1
    60   132   139   am
    61   132   133    2
    62   139   140    1
    63   104   102   ar
    64   104   106   ar
    65   102   101   ar
    66   107   106    1
    67   106   105   ar
    68   101   100    1
    69   101   103   ar
    70   105   103   ar
    71    79    78    1
    72    79    80    1
    73   144   143    1
    74   144   146    1
    75   144   145    1
    76   142   141    2
    77   140   143    1
    78   140   141    1
    79    80    81    2
    80    80    82   am
    81    49    48    1
    82    48    45    1
    83    82    83    1
    84    45    46    1
    85    45    44    1
    86    47    46    2
    87    83    84    1
    88    83    86    1
    89    85    84    2
    90    84    88   am
    91    88    89    1
    92    89    92    1
    93    89    90    1
    94    93    95    1
    95    93    92    1
    96    93    94    1
    97   155   153   ar
    98    44    40   am
    99   154   153   ar
   100    86    87    1
   101    91    90    2
   102   153   152    1
   103    35    36    1
   104    35    34    1
   105    43    42    1
   106    37    36    2
   107    36    38   am
   108    40    41    2
   109    40    39    1
   110   151   152    1
   111   151   148    1
   112    34    28   am
   113    38    39    1
   114    32    31   ar
   115     9     7   ar
   116    39    42    1
   117    33    31   ar
   118   149   148    1
   119   149   150    2
   120    31    30    1
   121   148   147    1
   122     7     8   ar
   123     7     6    1
   124    28    29    2
   125    28    27    1
   126     6     5    1
   127     4     3    2
   128    16    15   ar
   129    27    30    1
   130    27    26    1
   131    21    20    2
   132     3     2    1
   133    15    17   ar
   134    15    14    1
   135     5     2    1
   136    26    20   am
   137    20    19    1
   138     2     1    1
   139    14    11    1
   140    25    23    1
   141    22    19    1
   142    22    23    1
   143    19    18    1
   144    11    12    1
   145    11    10    1
   146    23    24    1
   147    13    12    2
