@<TRIPOS>MOLECULE
tmp/2q8mA02.pdb
 153 147 0 0 0
SMALL
GASTEIGER

@<TRIPOS>ATOM
      1  N        112.6820   45.6120   19.6530 N.3     7  ILE7       -0.1245
      2  CA       112.6580   47.0730   19.6650 C.3     7  ILE7        0.1561
      3  C        113.3510   47.6140   20.9140 C.2     7  ILE7        0.2260
      4  O        114.1390   48.5520   20.8360 O.2     7  ILE7       -0.2867
      5  CB       111.2040   47.6190   19.6390 C.3     7  ILE7        0.0252
      6  CG1      110.5200   47.2260   18.3280 C.3     7  ILE7        0.0019
      7  CG2      111.2090   49.1420   19.7930 C.3     7  ILE7        0.0019
      8  CD1      109.0380   47.5900   18.2720 C.3     7  ILE7        0.0001
      9  N        117.1810   47.1730   20.8530 N.3    10  LYS10      -0.1231
     10  CA       117.8400   48.1590   20.0120 C.3    10  LYS10       0.1693
     11  C        117.8670   49.5010   20.7210 C.2    10  LYS10       0.2591
     12  O        118.8510   50.2310   20.6300 O.2    10  LYS10      -0.2718
     13  CB       117.1430   48.2850   18.6550 C.3    10  LYS10       0.0285
     14  CG       117.4670   47.1420   17.6880 C.3    10  LYS10       0.0035
     15  CD       118.9340   47.1600   17.2300 C.3    10  LYS10       0.0206
     16  CE       119.2770   48.4320   16.4420 C.3    10  LYS10       0.1093
     17  NZ       120.6290   48.3880   15.7990 N.3    10  LYS10      -0.1314
     18  N        116.7960   49.8300   21.4390 N.am   11  GLN11      -0.1979
     19  CA       116.7720   51.0980   22.1600 C.3    11  GLN11       0.1601
     20  C        117.9360   51.1530   23.1520 C.2    11  GLN11       0.2287
     21  O        118.5910   52.1810   23.3010 O.2    11  GLN11      -0.2864
     22  CB       115.4640   51.2750   22.9400 C.3    11  GLN11       0.0394
     23  CG       115.3640   52.6500   23.6100 C.3    11  GLN11       0.0908
     24  CD       114.3640   52.6950   24.7550 C.2    11  GLN11       0.2608
     25  OE1      113.1950   52.3650   24.5860 O.2    11  GLN11      -0.2717
     26  NE2      114.8270   53.1100   25.9260 N.am   11  GLN11      -0.0878
     27  N        121.3380   52.6990   22.6880 N.3    14  PHE14      -0.1241
     28  CA       121.4200   54.1550   22.7860 C.3    14  PHE14       0.1605
     29  C        121.1350   54.5330   24.2430 C.2    14  PHE14       0.2264
     30  O        119.9810   54.7020   24.6330 O.2    14  PHE14      -0.2867
     31  CB       120.3830   54.8240   21.8760 C.3    14  PHE14       0.0534
     32  CG       120.5900   54.5570   20.4060 C.ar   14  PHE14      -0.0203
     33  CD1      120.1220   53.3830   19.8220 C.ar   14  PHE14      -0.0042
     34  CD2      121.2510   55.4840   19.6040 C.ar   14  PHE14      -0.0042
     35  CE1      120.3070   53.1370   18.4580 C.ar   14  PHE14      -0.0003
     36  CE2      121.4410   55.2430   18.2340 C.ar   14  PHE14      -0.0003
     37  CZ       120.9650   54.0660   17.6650 C.ar   14  PHE14      -0.0000
     38  N        121.2530   57.1870   25.7510 N.3    16  HIS16      -0.1226
     39  CA       120.5350   58.4380   25.9380 C.3    16  HIS16       0.1752
     40  C        119.1320   58.4710   25.3350 C.2    16  HIS16       0.2596
     41  O        118.4860   59.5160   25.3300 O.2    16  HIS16      -0.2718
     42  CB       121.3680   59.6010   25.3990 C.3    16  HIS16       0.0759
     43  CG       122.6690   59.7910   26.1190 C.ar   16  HIS16       0.0818
     44  ND1      123.5040   60.8610   25.8820 N.ar   16  HIS16      -0.2268
     45  CD2      123.2810   59.0400   27.0660 C.ar   16  HIS16       0.1154
     46  CE1      124.5740   60.7630   26.6520 C.ar   16  HIS16       0.1986
     47  NE2      124.4630   59.6670   27.3800 N.ar   16  HIS16      -0.2212
     48  N        118.6530   57.3310   24.8380 N.am   17  ALA17      -0.1966
     49  CA       117.3130   57.2700   24.2570 C.3    17  ALA17       0.1728
     50  C        116.3000   57.4610   25.3820 C.2    17  ALA17       0.2617
     51  O        116.5250   57.0250   26.5110 O.2    17  ALA17      -0.2715
     52  CB       117.0900   55.9280   23.5660 C.3    17  ALA17       0.0334
     53  N        115.1840   58.1120   25.0730 N.am   18  THR18      -0.1937
     54  CA       114.1600   58.3720   26.0790 C.3    18  THR18       0.2028
     55  C        113.0040   57.3900   26.0150 C.2    18  THR18       0.2643
     56  O        112.1560   57.3740   26.9030 O.2    18  THR18      -0.2714
     57  CB       113.5680   59.7680   25.9100 C.3    18  THR18       0.1808
     58  OG1      112.8560   59.8190   24.6690 O.3    18  THR18      -0.2208
     59  CG2      114.6700   60.8200   25.9050 C.3    18  THR18       0.0379
     60  N        112.9610   56.5870   24.9570 N.am   19  GLY19      -0.1939
     61  CA       111.8840   55.6280   24.8100 C.3    19  GLY19       0.2014
     62  C        110.7540   56.1550   23.9470 C.2    19  GLY19       0.2639
     63  O        109.7540   55.4720   23.7590 O.2    19  GLY19      -0.2714
     64  N        110.9010   57.3650   23.4130 N.am   20  GLU20      -0.1963
     65  CA       109.8540   57.9420   22.5700 C.3    20  GLU20       0.1733
     66  C        109.7270   57.2050   21.2320 C.2    20  GLU20       0.2616
     67  O        108.6170   56.9350   20.7690 O.2    20  GLU20      -0.2715
     68  CB       110.1100   59.4420   22.3300 C.3    20  GLU20       0.0429
     69  CG       109.0510   60.1230   21.4450 C.3    20  GLU20       0.1163
     70  CD       109.1020   61.6500   21.4890 C.2    20  GLU20       0.3649
     71  OE1      108.3300   62.2970   20.7470 O.co2  20  GLU20      -0.2457
     72  OE2      109.9100   62.2060   22.2610 O.co2  20  GLU20      -0.2457
     73  N        110.8590   56.8740   20.6120 N.am   21  LEU21      -0.1963
     74  CA       110.8290   56.1640   19.3350 C.3    21  LEU21       0.1728
     75  C        110.3180   54.7450   19.5580 C.2    21  LEU21       0.2616
     76  O        109.5600   54.2140   18.7520 O.2    21  LEU21      -0.2715
     77  CB       112.2280   56.1280   18.6950 C.3    21  LEU21       0.0311
     78  CG       112.3530   55.3760   17.3600 C.3    21  LEU21       0.0022
     79  CD1      111.3540   55.9430   16.3600 C.3    21  LEU21       0.0001
     80  CD2      113.7770   55.4920   16.8160 C.3    21  LEU21       0.0001
     81  N        110.7380   54.1350   20.6590 N.am   22  THR22      -0.1951
     82  CA       110.3050   52.7790   20.9930 C.3    22  THR22       0.1897
     83  C        108.7900   52.7530   21.1340 C.2    22  THR22       0.2313
     84  O        108.1240   51.8620   20.6060 O.2    22  THR22      -0.2863
     85  CB       110.9390   52.3040   22.3130 C.3    22  THR22       0.1794
     86  OG1      112.3470   52.1320   22.1250 O.3    22  THR22      -0.2208
     87  CG2      110.3240   50.9840   22.7700 C.3    22  THR22       0.0378
     88  N        107.1940   52.9500   17.6240 N.3    25  LEU25      -0.1245
     89  CA       107.2890   51.7000   16.8750 C.3    25  LEU25       0.1561
     90  C        106.3480   50.6600   17.4740 C.2    25  LEU25       0.2260
     91  O        105.7340   49.8690   16.7540 O.2    25  LEU25      -0.2867
     92  CB       108.7220   51.1610   16.8990 C.3    25  LEU25       0.0270
     93  CG       109.7690   51.9300   16.0830 C.3    25  LEU25       0.0019
     94  CD1      111.1660   51.4000   16.4080 C.3    25  LEU25       0.0001
     95  CD2      109.4570   51.7860   14.6000 C.3    25  LEU25       0.0001
     96  N        108.4550   64.7490   19.1210 N.3    81  LYS81      -0.1231
     97  CA       109.4510   65.1200   18.1200 C.3    81  LYS81       0.1693
     98  C        109.4060   64.3660   16.7960 C.2    81  LYS81       0.2592
     99  O        110.0810   64.7550   15.8470 O.2    81  LYS81      -0.2718
    100  CB       110.8560   65.0090   18.7120 C.3    81  LYS81       0.0285
    101  CG       111.2890   63.6010   19.0790 C.3    81  LYS81       0.0035
    102  CD       112.7090   63.6290   19.6210 C.3    81  LYS81       0.0206
    103  CE       112.9990   62.3890   20.4270 C.3    81  LYS81       0.1093
    104  NZ       114.3610   62.4120   21.0140 N.3    81  LYS81      -0.1314
    105  N        108.6180   63.3000   16.7150 N.am   82  TYR82      -0.1976
    106  CA       108.5390   62.5410   15.4710 C.3    82  TYR82       0.1639
    107  C        107.2430   62.7590   14.7120 C.2    82  TYR82       0.2290
    108  O        106.1930   63.0290   15.3040 O.2    82  TYR82      -0.2864
    109  CB       108.6860   61.0330   15.7420 C.3    82  TYR82       0.0560
    110  CG       110.0160   60.6360   16.3350 C.ar   82  TYR82      -0.0198
    111  CD1      111.1950   60.7660   15.6030 C.ar   82  TYR82      -0.0009
    112  CD2      110.1000   60.1510   17.6400 C.ar   82  TYR82      -0.0009
    113  CE1      112.4290   60.4240   16.1570 C.ar   82  TYR82       0.0417
    114  CE2      111.3270   59.8090   18.2060 C.ar   82  TYR82       0.0417
    115  CZ       112.4850   59.9500   17.4580 C.ar   82  TYR82       0.1957
    116  OH       113.6990   59.6350   18.0200 O.3    82  TYR82      -0.2866
    117  N        112.2940   62.8920   12.1690 N.3   108  ARG108     -0.1245
    118  CA       112.3990   63.7360   13.3400 C.3   108  ARG108      0.1563
    119  C        111.9290   65.0750   12.7570 C.2   108  ARG108      0.2260
    120  O        112.3700   65.4700   11.6730 O.2   108  ARG108     -0.2867
    121  CB       113.8490   63.8400   13.8080 C.3   108  ARG108      0.0307
    122  CG       114.0170   64.6990   15.0500 C.3   108  ARG108      0.0489
    123  CD       115.4840   64.9530   15.3900 C.3   108  ARG108      0.2205
    124  NE       115.9700   64.1280   16.4980 N.pl3 108  ARG108     -0.0865
    125  CZ       116.3150   62.8480   16.3980 C.cat 108  ARG108      0.5346
    126  NH1      116.7450   62.1970   17.4720 N.pl3 108  ARG108      0.1354
    127  NH2      116.2410   62.2190   15.2300 N.pl3 108  ARG108      0.1354
    128  N        114.1540   58.4520    9.9250 N.3   130  VAL130     -0.1245
    129  CA       114.6420   57.8650   11.1600 C.3   130  VAL130      0.1561
    130  C        114.3340   56.3720   11.0870 C.2   130  VAL130      0.2260
    131  O        115.0780   55.5380   11.6000 O.2   130  VAL130     -0.2867
    132  CB       113.9120   58.4750   12.3800 C.3   130  VAL130      0.0252
    133  CG1      114.1860   57.6530   13.6180 C.3   130  VAL130      0.0019
    134  CG2      114.3750   59.9160   12.5930 C.3   130  VAL130      0.0019
    135  N        111.0410   46.2380    8.9440 N.3   144  TYR144     -0.1241
    136  CA       111.4220   47.6390    9.1310 C.3   144  TYR144      0.1605
    137  C        112.9260   47.8650    9.3090 C.2   144  TYR144      0.2264
    138  O        113.6970   46.9180    9.4600 O.2   144  TYR144     -0.2867
    139  CB       110.6570   48.2470   10.3210 C.3   144  TYR144      0.0534
    140  CG       111.2510   47.9690   11.6870 C.ar  144  TYR144     -0.0201
    141  CD1      111.9990   48.9450   12.3500 C.ar  144  TYR144     -0.0009
    142  CD2      111.0650   46.7400   12.3210 C.ar  144  TYR144     -0.0009
    143  CE1      112.5430   48.7090   13.6080 C.ar  144  TYR144      0.0417
    144  CE2      111.6160   46.4890   13.5890 C.ar  144  TYR144      0.0417
    145  CZ       112.3500   47.4820   14.2220 C.ar  144  TYR144      0.1957
    146  OH       112.8860   47.2600   15.4730 O.3   144  TYR144     -0.2866
    147  N        115.9750   51.1030   10.7660 N.3   146  THR146     -0.1218
    148  CA       116.2450   52.3790   11.4100 C.3   146  THR146      0.1862
    149  C        117.6410   52.8050   10.9530 C.2   146  THR146      0.2287
    150  O        118.2610   53.6780   11.5440 O.2   146  THR146     -0.2866
    151  CB       116.2020   52.2970   12.9690 C.3   146  THR146      0.1770
    152  OG1      117.1750   51.3600   13.4510 O.3   146  THR146     -0.2211
    153  CG2      114.8190   51.8760   13.4390 C.3   146  THR146      0.0375
@<TRIPOS>BOND
     1   135   136    1
     2   136   137    1
     3   136   139    1
     4   137   138    2
     5   128   129    1
     6   139   140    1
     7   147   148    1
     8   149   148    1
     9   149   150    2
    10   130   129    1
    11   130   131    2
    12   129   132    1
    13   148   151    1
    14   120   119    2
    15   140   142   ar
    16   140   141   ar
    17   117   118    1
    18   142   144   ar
    19   141   143   ar
    20   132   134    1
    21   132   133    1
    22   119   118    1
    23   151   153    1
    24   151   152    1
    25   118   121    1
    26   144   145   ar
    27   143   145   ar
    28   121   122    1
    29   145   146    1
    30    95    93    1
    31   107   108    2
    32   107   106    1
    33   122   123    1
    34   127   125    1
    35   123   124    1
    36   106   109    1
    37   106   105    1
    38   111   113   ar
    39   111   110   ar
    40   109   110    1
    41    17    16    1
    42    99    98    2
    43    93    94    1
    44    93    92    1
    45   113   115   ar
    46   110   112   ar
    47    79    78    1
    48   125   124    2
    49   125   126    1
    50    16    15    1
    51   105    98   am
    52    91    90    2
    53    98    97    1
    54    80    78    1
    55    89    92    1
    56    89    90    1
    57    89    88    1
    58    15    14    1
    59    78    77    1
    60   115   116    1
    61   115   114   ar
    62   112   114   ar
    63    37    36   ar
    64    37    35   ar
    65    14    13    1
    66    97   100    1
    67    97    96    1
    68    36    34   ar
    69     8     6    1
    70     6     5    1
    71    35    33   ar
    72    13    10    1
    73    77    74    1
    74   100   101    1
    75    76    75    2
    76   101   102    1
    77    74    75    1
    78    74    73    1
    79    75    81   am
    80    34    32   ar
    81   102   103    1
    82     5     2    1
    83     5     7    1
    84     1     2    1
    85     2     3    1
    86    33    32   ar
    87    10    11    1
    88    10     9    1
    89    32    31    1
    90   103   104    1
    91    84    83    2
    92    73    66   am
    93    12    11    2
    94    81    82    1
    95    11    18   am
    96    71    70   ar
    97    67    66    2
    98     4     3    2
    99    82    83    1
   100    82    85    1
   101    66    65    1
   102    18    19    1
   103    69    70    1
   104    69    68    1
   105    70    72   ar
   106    31    28    1
   107    86    85    1
   108    19    22    1
   109    19    20    1
   110    85    87    1
   111    68    65    1
   112    65    64    1
   113    27    28    1
   114    28    29    1
   115    22    23    1
   116    20    21    2
   117    64    62   am
   118    52    49    1
   119    23    24    1
   120    63    62    2
   121    62    61    1
   122    29    30    2
   123    49    48    1
   124    49    50    1
   125    25    24    2
   126    58    57    1
   127    24    26   am
   128    61    60    1
   129    48    40   am
   130    60    55   am
   131    53    50   am
   132    53    54    1
   133    41    40    2
   134    40    39    1
   135    50    51    2
   136    42    39    1
   137    42    43    1
   138    38    39    1
   139    44    43   ar
   140    44    46   ar
   141    59    57    1
   142    57    54    1
   143    55    54    1
   144    55    56    2
   145    43    45   ar
   146    46    47   ar
   147    45    47   ar
