@<TRIPOS>MOLECULE
tmp/2q8nC00.pdb
 120 115 0 0 0
SMALL
GASTEIGER

@<TRIPOS>ATOM
      1  N         84.3540   73.0110  178.5280 N.3    84  LEU84      -0.1245
      2  CA        84.1730   72.1120  179.6410 C.3    84  LEU84       0.1561
      3  C         84.7040   72.7040  180.9240 C.2    84  LEU84       0.2260
      4  O         84.0990   72.5670  181.9840 O.2    84  LEU84      -0.2867
      5  CB        84.8480   70.7820  179.3510 C.3    84  LEU84       0.0270
      6  CG        84.1690   69.8260  178.3830 C.3    84  LEU84       0.0019
      7  CD1       85.1860   68.8430  177.7560 C.3    84  LEU84       0.0001
      8  CD2       83.0790   69.0540  179.1070 C.3    84  LEU84       0.0001
      9  N         82.1900   75.2020  182.1000 N.3    87  HIS87      -0.1226
     10  CA        80.9450   74.5070  182.4910 C.3    87  HIS87       0.1752
     11  C         81.0570   73.8350  183.8610 C.2    87  HIS87       0.2596
     12  O         80.1450   73.9610  184.6950 O.2    87  HIS87      -0.2718
     13  CB        80.6160   73.5380  181.3930 C.3    87  HIS87       0.0759
     14  CG        79.5760   72.5520  181.7520 C.ar   87  HIS87       0.0818
     15  ND1       78.2270   72.8790  181.8390 N.ar   87  HIS87      -0.2268
     16  CD2       79.6660   71.2200  181.9690 C.ar   87  HIS87       0.1154
     17  CE1       77.5530   71.7910  182.1560 C.ar   87  HIS87       0.1986
     18  NE2       78.3930   70.7640  182.2200 N.ar   87  HIS87      -0.2212
     19  N         82.1740   73.1240  184.0980 N.am   88  TYR88      -0.1976
     20  CA        82.3750   72.4290  185.3470 C.3    88  TYR88       0.1639
     21  C         82.6450   73.3880  186.4800 C.2    88  TYR88       0.2290
     22  O         82.1620   73.2010  187.5800 O.2    88  TYR88      -0.2864
     23  CB        83.5210   71.4160  185.2020 C.3    88  TYR88       0.0560
     24  CG        83.1340   70.0140  184.7910 C.ar   88  TYR88      -0.0198
     25  CD1       82.6450   69.7390  183.5090 C.ar   88  TYR88      -0.0009
     26  CD2       83.2720   68.9510  185.6870 C.ar   88  TYR88      -0.0009
     27  CE1       82.2570   68.4530  183.1490 C.ar   88  TYR88       0.0417
     28  CE2       82.9030   67.6620  185.3330 C.ar   88  TYR88       0.0417
     29  CZ        82.3860   67.4210  184.0680 C.ar   88  TYR88       0.1957
     30  OH        82.0450   66.1200  183.7180 O.3    88  TYR88      -0.2866
     31  N         77.7200   70.4120  189.4490 N.3    93  LEU93      -0.1231
     32  CA        78.0890   69.2150  188.6810 C.3    93  LEU93       0.1693
     33  C         76.8810   68.5340  188.0630 C.2    93  LEU93       0.2592
     34  O         77.0200   67.9200  187.0480 O.2    93  LEU93      -0.2718
     35  CB        78.8630   68.2080  189.5220 C.3    93  LEU93       0.0284
     36  CG        80.2610   68.5760  190.0120 C.3    93  LEU93       0.0019
     37  CD1       80.7400   67.5760  191.0220 C.3    93  LEU93       0.0001
     38  CD2       81.1460   68.6120  188.8310 C.3    93  LEU93       0.0001
     39  N         75.6890   68.6810  188.6350 N.am   94  ASN94      -0.1974
     40  CA        74.4850   68.0460  188.0640 C.3    94  ASN94       0.1688
     41  C         73.6470   69.0010  187.2080 C.2    94  ASN94       0.2292
     42  O         72.4620   68.7470  186.9240 O.2    94  ASN94      -0.2864
     43  CB        73.6520   67.4050  189.2000 C.3    94  ASN94       0.1181
     44  CG        73.1540   68.4170  190.2090 C.2    94  ASN94       0.2629
     45  OD1       73.9110   69.3030  190.6680 O.2    94  ASN94      -0.2716
     46  ND2       71.8730   68.2890  190.6020 N.am   94  ASN94      -0.0877
     47  N         73.3320   69.5460  183.9850 N.3    96  ASN96      -0.1225
     48  CA        72.6610   69.0070  182.8160 C.3    96  ASN96       0.1785
     49  C         71.5420   68.0670  183.1990 C.2    96  ASN96       0.2597
     50  O         70.7390   67.6950  182.3610 O.2    96  ASN96      -0.2718
     51  CB        73.6390   68.2790  181.9010 C.3    96  ASN96       0.1169
     52  CG        74.5750   69.2260  181.1840 C.2    96  ASN96       0.2627
     53  OD1       74.2780   70.4260  181.0050 O.2    96  ASN96      -0.2716
     54  ND2       75.7500   68.7020  180.7570 N.am   96  ASN96      -0.0877
     55  N         71.5350   67.6480  184.4510 N.am   97  GLU97      -0.1979
     56  CA        70.5220   66.7530  184.9640 C.3    97  GLU97       0.1602
     57  C         69.5100   67.5010  185.7950 C.2    97  GLU97       0.2287
     58  O         68.6310   66.8950  186.3360 O.2    97  GLU97      -0.2864
     59  CB        71.1900   65.6430  185.7680 C.3    97  GLU97       0.0415
     60  CG        72.0770   64.7250  184.9300 C.3    97  GLU97       0.1163
     61  CD        73.4680   65.3010  184.6020 C.2    97  GLU97       0.3649
     62  OE1       74.1310   65.8610  185.4890 O.co2  97  GLU97      -0.2457
     63  OE2       73.8890   65.1950  183.4310 O.co2  97  GLU97      -0.2457
     64  N         74.6340   72.2900  178.7040 N.3   109  VAL109     -0.1231
     65  CA        75.7710   72.3570  177.7500 C.3   109  VAL109      0.1692
     66  C         76.4420   70.9680  177.7300 C.2   109  VAL109      0.2592
     67  O         76.8340   70.4670  178.7440 O.2   109  VAL109     -0.2718
     68  CB        76.7420   73.4290  178.1830 C.3   109  VAL109      0.0266
     69  CG1       78.0270   73.2840  177.3910 C.3   109  VAL109      0.0020
     70  CG2       76.1310   74.7600  177.9120 C.3   109  VAL109      0.0020
     71  N         76.5110   70.3570  176.5740 N.am  110  PHE110     -0.1962
     72  CA        77.2530   69.1250  176.3660 C.3   110  PHE110      0.1771
     73  C         78.3780   69.4500  175.4020 C.2   110  PHE110      0.2619
     74  O         78.1800   70.2250  174.5010 O.2   110  PHE110     -0.2715
     75  CB        76.4030   68.0590  175.7560 C.3   110  PHE110      0.0574
     76  CG        75.2730   67.6240  176.6480 C.ar  110  PHE110     -0.0200
     77  CD1       75.4970   66.7610  177.7070 C.ar  110  PHE110     -0.0042
     78  CD2       74.0100   68.0120  176.3800 C.ar  110  PHE110     -0.0042
     79  CE1       74.4910   66.3230  178.5270 C.ar  110  PHE110     -0.0003
     80  CE2       73.0230   67.5660  177.1990 C.ar  110  PHE110     -0.0003
     81  CZ        73.2860   66.7160  178.2710 C.ar  110  PHE110     -0.0000
     82  N         79.5730   68.9210  175.6440 N.am  111  VAL111     -0.1977
     83  CA        80.7090   69.1000  174.7210 C.3   111  VAL111      0.1596
     84  C         81.1110   67.7390  174.1570 C.2   111  VAL111      0.2287
     85  O         81.3530   66.7950  174.9240 O.2   111  VAL111     -0.2864
     86  CB        81.9250   69.7460  175.4690 C.3   111  VAL111      0.0276
     87  CG1       83.1070   69.9460  174.4950 C.3   111  VAL111      0.0022
     88  CG2       81.5150   71.0690  176.1370 C.3   111  VAL111      0.0022
     89  N         80.6640   58.3320  173.1530 N.3   119  LEU119     -0.1245
     90  CA        80.4320   59.7070  173.6050 C.3   119  LEU119      0.1561
     91  C         79.2840   60.3990  172.8380 C.2   119  LEU119      0.2260
     92  O         78.3220   60.8990  173.4490 O.2   119  LEU119     -0.2867
     93  CB        81.7140   60.5460  173.5040 C.3   119  LEU119      0.0270
     94  CG        81.6550   62.0080  173.9480 C.3   119  LEU119      0.0019
     95  CD1       81.4220   62.0190  175.3780 C.3   119  LEU119      0.0001
     96  CD2       82.9650   62.7870  173.5800 C.3   119  LEU119      0.0001
     97  N         75.7430   58.9370  173.4970 N.3   122  SER122     -0.1202
     98  CA        75.2370   59.2120  174.8250 C.3   122  SER122      0.2020
     99  C         74.7200   60.6240  174.9110 C.2   122  SER122      0.2618
    100  O         73.6840   60.8620  175.5300 O.2   122  SER122     -0.2717
    101  CB        76.3350   58.9710  175.8800 C.3   122  SER122      0.2103
    102  OG        77.3930   59.9440  175.8050 O.3   122  SER122     -0.2182
    103  N         75.3770   61.5620  174.2450 N.am  123  VAL123     -0.1979
    104  CA        74.8500   62.9530  174.1600 C.3   123  VAL123      0.1595
    105  C         73.5870   62.9850  173.2850 C.2   123  VAL123      0.2287
    106  O         72.5840   63.5490  173.6960 O.2   123  VAL123     -0.2864
    107  CB        75.8680   63.9300  173.6070 C.3   123  VAL123      0.0276
    108  CG1       75.2380   65.3460  173.3500 C.3   123  VAL123      0.0022
    109  CG2       77.0190   64.0470  174.6270 C.3   123  VAL123      0.0022
    110  N         70.4070   62.1260  174.9580 N.3   126  ARG126     -0.1245
    111  CA        69.9830   63.0490  176.0100 C.3   126  ARG126      0.1563
    112  C         69.3180   64.3000  175.4700 C.2   126  ARG126      0.2260
    113  O         68.8310   65.0940  176.2650 O.2   126  ARG126     -0.2867
    114  CB        71.1910   63.4380  176.9130 C.3   126  ARG126      0.0307
    115  CG        71.7310   62.1580  177.5920 C.3   126  ARG126      0.0489
    116  CD        72.3340   62.2630  178.8900 C.3   126  ARG126      0.2205
    117  NE        71.6270   63.1840  179.7530 N.pl3 126  ARG126     -0.0865
    118  CZ        72.2280   63.8940  180.6900 C.cat 126  ARG126      0.5346
    119  NH1       73.5310   63.7530  180.8930 N.pl3 126  ARG126      0.1354
    120  NH2       71.5210   64.7470  181.4180 N.pl3 126  ARG126      0.1354
@<TRIPOS>BOND
     1    91    92    2
     2    91    90    1
     3    89    90    1
     4   105   106    2
     5   105   104    1
     6   108   107    1
     7    97    98    1
     8    93    90    1
     9    93    94    1
    10    96    94    1
    11   107   104    1
    12   107   109    1
    13    94    95    1
    14    84    83    1
    15    84    85    2
    16   104   103    1
    17   103    99   am
    18    87    86    1
    19    74    73    2
    20    83    86    1
    21    83    82    1
    22    98    99    1
    23    98   101    1
    24    99   100    2
    25   110   111    1
    26    73    82   am
    27    73    72    1
    28    86    88    1
    29   112   111    1
    30   112   113    2
    31    75    72    1
    32    75    76    1
    33   102   101    1
    34   111   114    1
    35    72    71    1
    36    78    76   ar
    37    78    80   ar
    38    71    66   am
    39    76    77   ar
    40   114   115    1
    41    80    81   ar
    42    69    68    1
    43   115   116    1
    44    77    79   ar
    45    66    65    1
    46    66    67    2
    47    65    68    1
    48    65    64    1
    49     7     6    1
    50    70    68    1
    51    81    79   ar
    52     6     8    1
    53     6     5    1
    54     1     2    1
    55   116   117    1
    56     5     2    1
    57     2     3    1
    58   117   118    2
    59   118   119    1
    60   118   120    1
    61    54    52   am
    62     3     4    2
    63    53    52    2
    64    52    51    1
    65    13    14    1
    66    13    10    1
    67    14    15   ar
    68    14    16   ar
    69    15    17   ar
    70    51    48    1
    71    16    18   ar
    72     9    10    1
    73    17    18   ar
    74    50    49    2
    75    10    11    1
    76    48    49    1
    77    48    47    1
    78    27    25   ar
    79    27    29   ar
    80    49    55   am
    81    63    61   ar
    82    25    24   ar
    83    30    29    1
    84    11    19   am
    85    11    12    2
    86    29    28   ar
    87    19    20    1
    88    55    56    1
    89    61    60    1
    90    61    62   ar
    91    24    23    1
    92    24    26   ar
    93    60    59    1
    94    56    59    1
    95    56    57    1
    96    23    20    1
    97    28    26   ar
    98    20    21    1
    99    57    58    2
   100    21    22    2
   101    42    41    2
   102    34    33    2
   103    41    40    1
   104    33    39   am
   105    33    32    1
   106    40    39    1
   107    40    43    1
   108    32    31    1
   109    32    35    1
   110    38    36    1
   111    43    44    1
   112    35    36    1
   113    36    37    1
   114    44    46   am
   115    44    45    2
