@<TRIPOS>MOLECULE
tmp/2q8nA01.pdb
 76 74 0 0 0
SMALL
GASTEIGER

@<TRIPOS>ATOM
      1  N         23.0570   49.5520  134.2650 N.3   255  LYS255     -0.1231
      2  CA        21.9310   50.4870  134.2760 C.3   255  LYS255      0.1693
      3  C         22.3210   51.9320  134.7020 C.2   255  LYS255      0.2593
      4  O         21.5220   52.6750  135.2730 O.2   255  LYS255     -0.2718
      5  CB        20.8540   49.9350  135.2050 C.3   255  LYS255      0.0285
      6  CG        20.4100   48.5140  134.8450 C.3   255  LYS255      0.0035
      7  CD        19.5720   47.8610  135.9260 C.3   255  LYS255      0.0206
      8  CE        18.4810   48.7980  136.4610 C.3   255  LYS255      0.1093
      9  NZ        17.6740   48.2140  137.5760 N.3   255  LYS255     -0.1314
     10  N         23.5700   52.3190  134.4590 N.am  256  GLY256     -0.1942
     11  CA        24.0080   53.6790  134.7470 C.3   256  GLY256      0.2014
     12  C         24.3960   54.0690  136.1770 C.2   256  GLY256      0.2638
     13  O         24.6210   55.2470  136.4400 O.2   256  GLY256     -0.2714
     14  N         24.4960   53.1130  137.0990 N.am  257  LYS257     -0.1977
     15  CA        25.0620   53.4050  138.4250 C.3   257  LYS257      0.1596
     16  C         26.5820   53.3400  138.3390 C.2   257  LYS257      0.2287
     17  O         27.1620   52.3040  138.5320 O.2   257  LYS257     -0.2864
     18  CB        24.5850   52.4370  139.4640 C.3   257  LYS257      0.0298
     19  CG        23.1180   52.4750  139.8010 C.3   257  LYS257      0.0038
     20  CD        22.3760   53.7350  139.4720 C.3   257  LYS257      0.0206
     21  CE        20.9060   53.6040  139.9530 C.3   257  LYS257      0.1093
     22  NZ        19.9490   54.4070  139.1600 N.3   257  LYS257     -0.1314
     23  N         20.4060   64.5840  143.5830 N.3   320  GLY320     -0.1210
     24  CA        21.2230   64.8010  142.4070 C.3   320  GLY320      0.1940
     25  C         21.0000   63.6610  141.4230 C.2   320  GLY320      0.2454
     26  O         19.9820   62.9830  141.4870 O.2   320  GLY320     -0.2732
     27  N         21.9650   63.4180  140.5370 N.am  321  PRO321     -0.2717
     28  CA        21.8420   62.3280  139.5950 C.3   321  PRO321      0.1535
     29  C         21.7010   60.9730  140.2700 C.2   321  PRO321      0.2599
     30  O         22.3190   60.7230  141.3120 O.2   321  PRO321     -0.2715
     31  CB        23.1510   62.3880  138.8320 C.3   321  PRO321      0.0310
     32  CG        23.6500   63.7170  139.0260 C.3   321  PRO321      0.0237
     33  CD        23.2500   64.1140  140.3670 C.3   321  PRO321      0.0939
     34  N         20.8900   60.0980  139.6840 N.am  322  ASN322     -0.1959
     35  CA        20.6630   58.7700  140.2360 C.3   322  ASN322      0.1819
     36  C         21.6890   57.8200  139.7070 C.2   322  ASN322      0.2621
     37  O         21.3410   56.9030  138.9940 O.2   322  ASN322     -0.2715
     38  CB        19.2680   58.2530  139.8940 C.3   322  ASN322      0.1195
     39  CG        18.8380   57.1450  140.7920 C.2   322  ASN322      0.2630
     40  OD1       19.6580   56.4640  141.3990 O.2   322  ASN322     -0.2716
     41  ND2       17.5340   56.9740  140.9300 N.am  322  ASN322     -0.0877
     42  N         22.9580   58.0660  140.0580 N.am  323  ASP323     -0.1971
     43  CA        24.0700   57.3150  139.5220 C.3   323  ASP323      0.1709
     44  C         24.8530   56.4990  140.5890 C.2   323  ASP323      0.2293
     45  O         25.9540   56.0340  140.3250 O.2   323  ASP323     -0.2864
     46  CB        25.0150   58.2710  138.7710 C.3   323  ASP323      0.1436
     47  CG        25.5950   59.3980  139.6700 C.2   323  ASP323      0.3671
     48  OD1       25.2780   59.4430  140.8890 O.co2 323  ASP323     -0.2456
     49  OD2       26.3790   60.2180  139.1290 O.co2 323  ASP323     -0.2456
     50  N         13.3200   58.0710  148.0450 N.3   374  ASN374     -0.1225
     51  CA        13.7400   58.8120  146.8490 C.3   374  ASN374      0.1785
     52  C         14.2460   57.9360  145.7200 C.2   374  ASN374      0.2597
     53  O         14.8680   58.4290  144.7910 O.2   374  ASN374     -0.2718
     54  CB        14.7540   59.8940  147.2150 C.3   374  ASN374      0.1169
     55  CG        14.1360   61.0040  148.0500 C.2   374  ASN374      0.2627
     56  OD1       13.1410   61.6080  147.6480 O.2   374  ASN374     -0.2716
     57  ND2       14.7050   61.2630  149.2310 N.am  374  ASN374     -0.0877
     58  N         13.9670   56.6340  145.8180 N.am  375  ASN375     -0.1960
     59  CA        14.3460   55.6260  144.8250 C.3   375  ASN375      0.1819
     60  C         15.8250   55.5330  144.5090 C.2   375  ASN375      0.2621
     61  O         16.2150   55.3470  143.3640 O.2   375  ASN375     -0.2715
     62  CB        13.5220   55.8040  143.5360 C.3   375  ASN375      0.1195
     63  CG        12.0290   55.7450  143.8070 C.2   375  ASN375      0.2630
     64  OD1       11.5180   54.7940  144.4170 O.2   375  ASN375     -0.2716
     65  ND2       11.3410   56.7960  143.4250 N.am  375  ASN375     -0.0877
     66  N         16.6490   55.6530  145.5480 N.am  376  ARG376     -0.1977
     67  CA        18.0950   55.5370  145.4140 C.3   376  ARG376      0.1597
     68  C         18.4830   54.1610  145.9670 C.2   376  ARG376      0.2287
     69  O         18.2330   53.8630  147.1330 O.2   376  ARG376     -0.2864
     70  CB        18.7420   56.6760  146.1790 C.3   376  ARG376      0.0334
     71  CG        18.1140   58.0240  145.8410 C.3   376  ARG376      0.0492
     72  CD        18.5860   58.4930  144.4690 C.3   376  ARG376      0.2205
     73  NE        17.8680   59.6810  144.0170 N.pl3 376  ARG376     -0.0865
     74  CZ        18.4060   60.6670  143.3080 C.cat 376  ARG376      0.5346
     75  NH1       19.6950   60.6500  142.9890 N.pl3 376  ARG376      0.1354
     76  NH2       17.6590   61.7000  142.9320 N.pl3 376  ARG376      0.1354
@<TRIPOS>BOND
     1     1     2    1
     2     2     3    1
     3     2     5    1
     4    10     3   am
     5    10    11    1
     6     3     4    2
     7    11    12    1
     8     6     5    1
     9     6     7    1
    10     7     8    1
    11    12    13    2
    12    12    14   am
    13     8     9    1
    14    14    15    1
    15    16    15    1
    16    16    17    2
    17    15    18    1
    18    46    43    1
    19    46    47    1
    20    31    32    1
    21    31    28    1
    22    37    36    2
    23    32    33    1
    24    49    47   ar
    25    22    21    1
    26    18    19    1
    27    20    19    1
    28    20    21    1
    29    43    42    1
    30    43    44    1
    31    28    29    1
    32    28    27    1
    33    47    48   ar
    34    34    35    1
    35    34    29   am
    36    36    42   am
    37    36    35    1
    38    38    35    1
    39    38    39    1
    40    29    30    2
    41    45    44    2
    42    33    27    1
    43    27    25   am
    44    39    41   am
    45    39    40    2
    46    25    26    2
    47    25    24    1
    48    24    23    1
    49    76    74    1
    50    75    74    1
    51    74    73    2
    52    61    60    2
    53    65    63   am
    54    62    63    1
    55    62    59    1
    56    63    64    2
    57    73    72    1
    58    72    71    1
    59    60    59    1
    60    60    66   am
    61    53    52    2
    62    59    58    1
    63    67    66    1
    64    67    68    1
    65    67    70    1
    66    52    58   am
    67    52    51    1
    68    71    70    1
    69    68    69    2
    70    51    54    1
    71    51    50    1
    72    54    55    1
    73    56    55    2
    74    55    57   am
