@<TRIPOS>MOLECULE
tmp/2q8qA00.pdb
 197 190 0 0 0
SMALL
GASTEIGER

@<TRIPOS>ATOM
      1  N         66.7050   45.9970   53.7790 N.3     9  THR9       -0.1203
      2  CA        65.2600   46.1750   53.8590 C.3     9  THR9        0.1994
      3  C         64.8400   46.9760   55.0840 C.2     9  THR9        0.2618
      4  O         65.6080   47.1270   56.0310 O.2     9  THR9       -0.2717
      5  CB        64.4800   44.8400   53.8300 C.3     9  THR9        0.1784
      6  OG1       64.5870   44.1930   55.1010 O.3     9  THR9       -0.2211
      7  CG2       64.9560   43.9080   52.7130 C.3     9  THR9        0.0376
      8  N         63.6110   47.4920   55.0420 N.am   10  VAL10      -0.1965
      9  CA        63.0180   48.2230   56.1460 C.3    10  VAL10       0.1727
     10  C         62.7650   47.3210   57.3610 C.2    10  VAL10       0.2616
     11  O         63.0610   47.7130   58.4620 O.2    10  VAL10      -0.2715
     12  CB        61.7130   48.9510   55.7350 C.3    10  VAL10       0.0290
     13  CG1       61.1130   49.6940   56.9400 C.3    10  VAL10       0.0023
     14  CG2       61.9760   49.9210   54.5760 C.3    10  VAL10       0.0023
     15  N         62.2280   46.1210   57.1540 N.am   11  ALA11      -0.1977
     16  CA        62.0710   45.1350   58.2430 C.3    11  ALA11       0.1597
     17  C         63.3800   44.7710   58.9530 C.2    11  ALA11       0.2287
     18  O         63.3990   44.6570   60.1880 O.2    11  ALA11      -0.2864
     19  CB        61.3490   43.8520   57.7440 C.3    11  ALA11       0.0319
     20  N         66.6220   53.0710   50.9990 N.3    28  THR28      -0.1203
     21  CA        65.8320   54.2270   50.5590 C.3    28  THR28       0.1994
     22  C         64.3710   53.8160   50.5730 C.2    28  THR28       0.2619
     23  O         63.9990   52.8240   49.9530 O.2    28  THR28      -0.2717
     24  CB        66.2040   54.6830   49.1290 C.3    28  THR28       0.1784
     25  OG1       67.6200   54.8490   49.0420 O.3    28  THR28      -0.2211
     26  CG2       65.5150   56.0180   48.7810 C.3    28  THR28       0.0376
     27  N         63.5470   54.5780   51.2780 N.am   29  SER29      -0.1937
     28  CA        62.1770   54.1600   51.5450 C.3    29  SER29       0.2055
     29  C         61.3110   55.3560   51.9050 C.2    29  SER29       0.2643
     30  O         61.8110   56.3470   52.4520 O.2    29  SER29      -0.2714
     31  CB        62.1610   53.1310   52.6860 C.3    29  SER29       0.2130
     32  OG        60.8440   52.9000   53.1690 O.3    29  SER29      -0.2179
     33  N         60.0220   55.2700   51.5760 N.am   30  TYR30      -0.1959
     34  CA        59.0380   56.2720   52.0170 C.3    30  TYR30       0.1771
     35  C         58.4760   55.9460   53.4100 C.2    30  TYR30       0.2619
     36  O         57.6750   56.6920   53.9420 O.2    30  TYR30      -0.2715
     37  CB        57.8910   56.3830   51.0100 C.3    30  TYR30       0.0574
     38  CG        57.1680   55.0780   50.7490 C.ar   30  TYR30      -0.0198
     39  CD1       57.2420   54.4660   49.4960 C.ar   30  TYR30      -0.0009
     40  CD2       56.4100   54.4500   51.7470 C.ar   30  TYR30      -0.0009
     41  CE1       56.5940   53.2700   49.2380 C.ar   30  TYR30       0.0417
     42  CE2       55.7520   53.2460   51.4930 C.ar   30  TYR30       0.0417
     43  CZ        55.8550   52.6660   50.2340 C.ar   30  TYR30       0.1957
     44  OH        55.2140   51.4840   49.9500 O.3    30  TYR30      -0.2866
     45  N         58.8830   54.8080   53.9840 N.am   31  LYS31      -0.1977
     46  CA        58.3970   54.3940   55.2980 C.3    31  LYS31       0.1596
     47  C         59.1690   55.0770   56.4200 C.2    31  LYS31       0.2287
     48  O         60.3290   55.4770   56.2420 O.2    31  LYS31      -0.2864
     49  CB        58.4740   52.8750   55.4560 C.3    31  LYS31       0.0298
     50  CG        57.6980   52.1130   54.3850 C.3    31  LYS31       0.0038
     51  CD        57.6130   50.6400   54.6470 C.3    31  LYS31       0.0206
     52  CE        56.7560   49.9720   53.5820 C.3    31  LYS31       0.1093
     53  NZ        57.0290   48.5190   53.5430 N.3    31  LYS31      -0.1314
     54  N         66.8040   51.6090   47.0880 N.3    45  GLN45      -0.1231
     55  CA        65.5790   50.8660   47.4020 C.3    45  GLN45       0.1683
     56  C         65.8500   49.3810   47.6280 C.2    45  GLN45       0.2434
     57  O         66.7350   48.8210   46.9910 O.2    45  GLN45      -0.2733
     58  CB        64.5430   51.0940   46.3190 C.3    45  GLN45       0.0380
     59  CG        63.9050   52.4720   46.4300 C.3    45  GLN45       0.0905
     60  CD        62.9860   52.7890   45.2830 C.2    45  GLN45       0.2608
     61  OE1       61.7770   52.9670   45.4710 O.2    45  GLN45      -0.2717
     62  NE2       63.5470   52.8690   44.0770 N.am   45  GLN45      -0.0878
     63  N         65.1030   48.7530   48.5650 N.am   46  PRO46      -0.2718
     64  CA        65.3810   47.3900   49.0390 C.3    46  PRO46       0.1535
     65  C         65.5420   46.3270   47.9480 C.2    46  PRO46       0.2598
     66  O         66.3640   45.4210   48.0950 O.2    46  PRO46      -0.2715
     67  CB        64.1670   47.0850   49.9210 C.3    46  PRO46       0.0310
     68  CG        63.7810   48.4300   50.4530 C.3    46  PRO46       0.0237
     69  CD        63.9330   49.3290   49.2640 C.3    46  PRO46       0.0939
     70  N         64.7760   46.4520   46.8650 N.am   47  MET47      -0.1978
     71  CA        64.7940   45.4750   45.7790 C.3    47  MET47       0.1605
     72  C         65.9510   45.7100   44.8100 C.2    47  MET47       0.2287
     73  O         66.2750   44.8390   44.0100 O.2    47  MET47      -0.2864
     74  CB        63.4600   45.4850   45.0190 C.3    47  MET47       0.0413
     75  CG        62.2880   44.9420   45.8220 C.3    47  MET47       0.0598
     76  SD        60.7640   44.6560   44.8670 S.3    47  MET47      -0.1393
     77  CE        61.1420   43.0730   44.1230 C.3    47  MET47       0.0692
     78  N         66.6610   39.5300   52.6870 N.3    65  VAL65      -0.1245
     79  CA        65.6560   38.5670   53.1610 C.3    65  VAL65       0.1561
     80  C         65.3880   37.4480   52.1380 C.2    65  VAL65       0.2260
     81  O         65.6820   37.5860   50.9440 O.2    65  VAL65      -0.2867
     82  CB        64.2910   39.2430   53.5730 C.3    65  VAL65       0.0252
     83  CG1       64.4430   40.1600   54.7890 C.3    65  VAL65       0.0019
     84  CG2       63.6320   39.9830   52.3860 C.3    65  VAL65       0.0019
     85  N         62.6080   36.2760   50.9360 N.3    67  THR67      -0.1203
     86  CA        61.4750   36.5060   50.0390 C.3    67  THR67       0.1994
     87  C         61.9280   36.8950   48.6280 C.2    67  THR67       0.2617
     88  O         61.2660   36.5840   47.6310 O.2    67  THR67      -0.2717
     89  CB        60.5160   37.5770   50.6220 C.3    67  THR67       0.1784
     90  OG1       60.3720   37.3690   52.0380 O.3    67  THR67      -0.2211
     91  CG2       59.1550   37.5050   49.9590 C.3    67  THR67       0.0376
     92  N         63.0670   37.5780   48.5520 N.am   68  ILE68      -0.1979
     93  CA        63.6060   37.9930   47.2690 C.3    68  ILE68       0.1595
     94  C         65.0410   37.4870   47.0590 C.2    68  ILE68       0.2287
     95  O         65.8580   38.1400   46.4060 O.2    68  ILE68      -0.2864
     96  CB        63.5130   39.5110   47.1130 C.3    68  ILE68       0.0276
     97  CG1       64.1510   40.2150   48.3290 C.3    68  ILE68       0.0022
     98  CG2       62.0640   39.9040   46.8760 C.3    68  ILE68       0.0022
     99  CD1       64.2650   41.7290   48.1800 C.3    68  ILE68       0.0001
    100  N         66.2200   36.9450   43.2820 N.3    71  GLU71      -0.1245
    101  CA        66.3410   38.1940   42.5360 C.3    71  GLU71       0.1567
    102  C         67.4240   39.1310   43.0910 C.2    71  GLU71       0.2260
    103  O         67.8290   40.0750   42.4160 O.2    71  GLU71      -0.2867
    104  CB        64.9680   38.8920   42.3310 C.3    71  GLU71       0.0388
    105  CG        63.9090   38.6520   43.4110 C.3    71  GLU71       0.1160
    106  CD        63.2350   37.2780   43.3310 C.2    71  GLU71       0.3649
    107  OE1       62.5520   36.9840   42.3340 O.co2  71  GLU71      -0.2457
    108  OE2       63.3870   36.4830   44.2720 O.co2  71  GLU71      -0.2457
    109  N         50.7500   44.7720   43.6690 N.3   144  VAL144     -0.1231
    110  CA        52.0240   45.4090   43.3590 C.3   144  VAL144      0.1678
    111  C         51.7940   46.3740   42.1830 C.2   144  VAL144      0.2434
    112  O         50.7160   46.3610   41.5820 O.2   144  VAL144     -0.2733
    113  CB        53.1230   44.3550   43.0490 C.3   144  VAL144      0.0265
    114  CG1       53.2400   43.3870   44.1980 C.3   144  VAL144      0.0020
    115  CG2       52.8170   43.6000   41.7500 C.3   144  VAL144      0.0020
    116  N         52.7720   47.2560   41.8830 N.am  145  PRO145     -0.2729
    117  CA        52.5690   48.0940   40.7020 C.3   145  PRO145      0.1401
    118  C         52.3250   47.2640   39.4340 C.2   145  PRO145      0.2269
    119  O         53.1910   46.4900   39.0310 O.2   145  PRO145     -0.2865
    120  CB        53.8770   48.8870   40.6110 C.3   145  PRO145      0.0296
    121  CG        54.3800   48.9230   42.0410 C.3   145  PRO145      0.0237
    122  CD        54.0300   47.5800   42.5870 C.3   145  PRO145      0.0939
    123  N         48.6850   39.5990   43.0400 N.3   149  LEU149     -0.1245
    124  CA        49.0460   38.2180   43.2570 C.3   149  LEU149      0.1561
    125  C         48.1920   37.6940   44.4080 C.2   149  LEU149      0.2260
    126  O         47.4540   38.4580   45.0440 O.2   149  LEU149     -0.2867
    127  CB        50.5340   38.1260   43.6120 C.3   149  LEU149      0.0270
    128  CG        51.5040   38.8080   42.6410 C.3   149  LEU149      0.0019
    129  CD1       52.8850   38.8890   43.2520 C.3   149  LEU149      0.0001
    130  CD2       51.5590   38.0560   41.3310 C.3   149  LEU149      0.0001
    131  N         55.3970   31.9880   48.2300 N.3   176  GLN176     -0.1231
    132  CA        54.7120   33.0190   49.0280 C.3   176  GLN176      0.1698
    133  C         53.5140   33.6470   48.3120 C.2   176  GLN176      0.2592
    134  O         52.4550   33.8380   48.9040 O.2   176  GLN176     -0.2718
    135  CB        55.7100   34.1070   49.4820 C.3   176  GLN176      0.0381
    136  CG        56.8770   33.5920   50.3300 C.3   176  GLN176      0.0905
    137  CD        58.0900   33.1750   49.4990 C.2   176  GLN176      0.2608
    138  OE1       57.9770   32.8290   48.3160 O.2   176  GLN176     -0.2717
    139  NE2       59.2670   33.2240   50.1170 N.am  176  GLN176     -0.0878
    140  N         53.6920   33.9710   47.0370 N.am  177  TYR177     -0.1976
    141  CA        52.6820   34.6680   46.2450 C.3   177  TYR177      0.1639
    142  C         52.5910   33.9630   44.8900 C.2   177  TYR177      0.2290
    143  O         53.6000   33.4660   44.3660 O.2   177  TYR177     -0.2864
    144  CB        53.0400   36.1590   46.1040 C.3   177  TYR177      0.0560
    145  CG        53.2630   36.8500   47.4450 C.ar  177  TYR177     -0.0198
    146  CD1       52.1760   37.1940   48.2700 C.ar  177  TYR177     -0.0009
    147  CD2       54.5550   37.1250   47.9130 C.ar  177  TYR177     -0.0009
    148  CE1       52.3720   37.8080   49.5140 C.ar  177  TYR177      0.0417
    149  CE2       54.7570   37.7260   49.1650 C.ar  177  TYR177      0.0417
    150  CZ        53.6630   38.0760   49.9430 C.ar  177  TYR177      0.1957
    151  OH        53.8550   38.6740   51.1720 O.3   177  TYR177     -0.2866
    152  N         51.5790   47.0390   47.8500 N.3   198  HIS198     -0.1226
    153  CA        53.0360   46.9510   47.8370 C.3   198  HIS198      0.1752
    154  C         53.6620   47.8460   46.7910 C.2   198  HIS198      0.2597
    155  O         53.1600   47.9340   45.6810 O.2   198  HIS198     -0.2718
    156  CB        53.5060   45.5160   47.6060 C.3   198  HIS198      0.0759
    157  CG        54.9980   45.3860   47.5650 C.ar  198  HIS198      0.0818
    158  ND1       55.7760   45.4190   48.7010 N.ar  198  HIS198     -0.2268
    159  CD2       55.8520   45.2710   46.5250 C.ar  198  HIS198      0.1154
    160  CE1       57.0460   45.3100   48.3640 C.ar  198  HIS198      0.1986
    161  NE2       57.1230   45.2260   47.0470 N.ar  198  HIS198     -0.2212
    162  N         54.7590   48.5030   47.1660 N.am  199  GLY199     -0.1942
    163  CA        55.6360   49.1980   46.2300 C.3   199  GLY199      0.2014
    164  C         55.2250   50.6290   45.9450 C.2   199  GLY199      0.2638
    165  O         55.9970   51.5740   46.1740 O.2   199  GLY199     -0.2714
    166  N         54.0180   50.7680   45.4040 N.am  200  MET200     -0.1976
    167  CA        53.3930   52.0570   45.1090 C.3   200  MET200      0.1605
    168  C         51.9530   51.9530   45.6200 C.2   200  MET200      0.2287
    169  O         51.0470   51.6470   44.8510 O.2   200  MET200     -0.2864
    170  CB        53.3990   52.3460   43.5960 C.3   200  MET200      0.0413
    171  CG        54.7750   52.4940   42.9510 C.3   200  MET200      0.0598
    172  SD        55.4280   54.1780   43.0370 S.3   200  MET200     -0.1393
    173  CE        54.8300   54.8820   41.4910 C.3   200  MET200      0.0692
    174  N         49.8050   48.9300   54.6080 N.3   234  GLU234     -0.1245
    175  CA        51.1030   48.2690   54.3930 C.3   234  GLU234      0.1567
    176  C         51.9720   48.1790   55.6710 C.2   234  GLU234      0.2260
    177  O         52.7910   47.2630   55.8260 O.2   234  GLU234     -0.2867
    178  CB        51.8570   49.0200   53.2950 C.3   234  GLU234      0.0388
    179  CG        53.0460   48.2580   52.7430 C.3   234  GLU234      0.1160
    180  CD        53.8130   49.0600   51.7370 C.2   234  GLU234      0.3649
    181  OE1       53.5360   50.2730   51.6160 O.co2 234  GLU234     -0.2457
    182  OE2       54.6900   48.4830   51.0530 O.co2 234  GLU234     -0.2457
    183  N         54.8410   42.9560   52.9580 N.3   239  ILE239     -0.1231
    184  CA        55.1370   41.8130   52.0910 C.3   239  ILE239      0.1692
    185  C         56.0650   40.7880   52.7590 C.2   239  ILE239      0.2592
    186  O         56.2740   39.6930   52.2430 O.2   239  ILE239     -0.2718
    187  CB        55.6800   42.2870   50.7070 C.3   239  ILE239      0.0266
    188  CG1       55.4410   41.2140   49.6280 C.3   239  ILE239      0.0019
    189  CG2       57.1420   42.7090   50.7750 C.3   239  ILE239      0.0020
    190  CD1       55.5400   41.7490   48.1730 C.3   239  ILE239      0.0001
    191  N         56.6270   41.1540   53.9080 N.am  240  THR240     -0.1953
    192  CA        57.3870   40.2340   54.7480 C.3   240  THR240      0.1897
    193  C         57.0320   40.5490   56.2010 C.2   240  THR240      0.2313
    194  O         56.3700   41.5560   56.4950 O.2   240  THR240     -0.2863
    195  CB        58.9690   40.3360   54.5940 C.3   240  THR240      0.1794
    196  OG1       59.5000   41.3940   55.4220 O.3   240  THR240     -0.2208
    197  CG2       59.4270   40.5290   53.1580 C.3   240  THR240      0.0378
@<TRIPOS>BOND
     1   119   118    2
     2   118   117    1
     3   120   117    1
     4   120   121    1
     5   117   116    1
     6   130   128    1
     7   173   172    1
     8   112   111    2
     9   115   113    1
    10   116   111   am
    11   116   122    1
    12   121   122    1
    13   111   110    1
    14   104   101    1
    15   104   105    1
    16   107   106   ar
    17   103   102    2
    18   101   102    1
    19   101   100    1
    20   128   129    1
    21   128   127    1
    22   171   172    1
    23   171   170    1
    24   123   124    1
    25   113   110    1
    26   113   114    1
    27   124   127    1
    28   124   125    1
    29   106   105    1
    30   106   108   ar
    31   110   109    1
    32   170   167    1
    33    73    72    2
    34    62    60   am
    35    77    76    1
    36   143   142    2
    37   125   126    2
    38    72    71    1
    39   169   168    2
    40    76    75    1
    41   142   141    1
    42    74    71    1
    43    74    75    1
    44   167   166    1
    45   167   168    1
    46    60    61    2
    47    60    59    1
    48   166   164   am
    49   155   154    2
    50    71    70    1
    51   164   165    2
    52   164   163    1
    53   144   141    1
    54   144   145    1
    55   163   162    1
    56   141   140    1
    57    58    59    1
    58    58    55    1
    59    95    94    2
    60   159   161   ar
    61   159   157   ar
    62   154   162   am
    63   154   153    1
    64    70    65   am
    65    98    96    1
    66    57    56    2
    67   140   133   am
    68   161   160   ar
    69    94    93    1
    70    54    55    1
    71    96    93    1
    72    96    97    1
    73    93    92    1
    74    55    56    1
    75   145   147   ar
    76   145   146   ar
    77   157   156    1
    78   157   158   ar
    79   156   153    1
    80    56    63   am
    81    88    87    2
    82   153   152    1
    83   147   149   ar
    84    65    66    2
    85    65    64    1
    86   190   188    1
    87    99    97    1
    88   131   132    1
    89   146   148   ar
    90   133   134    2
    91   133   132    1
    92   138   137    2
    93   160   158   ar
    94    92    87   am
    95    63    64    1
    96    63    69    1
    97    87    86    1
    98    26    24    1
    99   132   135    1
   100    64    67    1
   101    25    24    1
   102    24    21    1
   103   149   150   ar
   104    41    39   ar
   105    41    43   ar
   106    69    68    1
   107   135   136    1
   108    39    38   ar
   109   137   139   am
   110   137   136    1
   111   148   150   ar
   112   188   187    1
   113    67    68    1
   114   150   151    1
   115    44    43    1
   116    23    22    2
   117    91    89    1
   118    86    89    1
   119    86    85    1
   120    43    42   ar
   121    21    22    1
   122    21    20    1
   123    22    27   am
   124    89    90    1
   125   187   189    1
   126   187   184    1
   127    38    37    1
   128    38    40   ar
   129    81    80    2
   130    37    34    1
   131   182   180   ar
   132    27    28    1
   133    42    40   ar
   134    28    29    1
   135    28    31    1
   136    33    29   am
   137    33    34    1
   138   181   180   ar
   139   180   179    1
   140    29    30    2
   141    34    35    1
   142   184   185    1
   143   184   183    1
   144    80    79    1
   145   186   185    2
   146    84    82    1
   147    31    32    1
   148    78    79    1
   149     7     5    1
   150   179   178    1
   151   185   191   am
   152   197   195    1
   153    79    82    1
   154   178   175    1
   155    35    36    2
   156    35    45   am
   157    53    52    1
   158    82    83    1
   159    52    51    1
   160     1     2    1
   161     5     2    1
   162     5     6    1
   163     2     3    1
   164   191   192    1
   165    45    46    1
   166    50    51    1
   167    50    49    1
   168   175   174    1
   169   175   176    1
   170    14    12    1
   171   195   192    1
   172   195   196    1
   173   192   193    1
   174     8     3   am
   175     8     9    1
   176     3     4    2
   177    46    49    1
   178    46    47    1
   179   176   177    2
   180    12     9    1
   181    12    13    1
   182     9    10    1
   183   193   194    2
   184    48    47    2
   185    15    10   am
   186    15    16    1
   187    10    11    2
   188    19    16    1
   189    16    17    1
   190    17    18    2
