@<TRIPOS>MOLECULE
tmp/2q92A00.pdb
 148 143 0 0 0
SMALL
GASTEIGER

@<TRIPOS>ATOM
      1  N         -4.7820    6.7650    9.9330 N.3    58  CYS58      -0.1235
      2  CA        -5.4780    5.5520   10.3640 C.3    58  CYS58       0.1677
      3  C         -6.9480    5.7760   10.6940 C.2    58  CYS58       0.2270
      4  O         -7.8000    4.9630   10.3450 O.2    58  CYS58      -0.2867
      5  CB        -4.7750    4.9550   11.5830 C.3    58  CYS58       0.0956
      6  SG        -3.0900    4.4010   11.2550 S.3    58  CYS58      -0.0801
      7  N         -9.5100    4.7370    8.2150 N.3    61  TYR61      -0.1227
      8  CA        -8.9550    3.8840    7.1690 C.3    61  TYR61       0.1736
      9  C         -9.5920    2.5070    7.2160 C.2    61  TYR61       0.2595
     10  O         -9.4200    1.7720    8.1870 O.2    61  TYR61      -0.2718
     11  CB        -7.4400    3.7460    7.3410 C.3    61  TYR61       0.0548
     12  CG        -6.7490    3.1450    6.1400 C.ar   61  TYR61      -0.0200
     13  CD1       -6.6690    3.8470    4.9370 C.ar   61  TYR61      -0.0009
     14  CD2       -6.1800    1.8740    6.2000 C.ar   61  TYR61      -0.0009
     15  CE1       -6.0390    3.3010    3.8260 C.ar   61  TYR61       0.0417
     16  CE2       -5.5470    1.3160    5.0930 C.ar   61  TYR61       0.0417
     17  CZ        -5.4800    2.0380    3.9100 C.ar   61  TYR61       0.1957
     18  OH        -4.8450    1.5020    2.8210 O.3    61  TYR61      -0.2866
     19  N        -10.3140    2.1530    6.1550 N.am   62  HIS62      -0.1975
     20  CA       -10.9950    0.8640    6.0900 C.3    62  HIS62       0.1656
     21  C        -11.9380    0.7340    7.2720 C.2    62  HIS62       0.2291
     22  O        -12.3240   -0.3700    7.6480 O.2    62  HIS62      -0.2864
     23  CB        -9.9890   -0.2880    6.1150 C.3    62  HIS62       0.0771
     24  CG        -9.2850   -0.5000    4.8140 C.ar   62  HIS62       0.0820
     25  ND1       -8.6030    0.5060    4.1630 N.ar   62  HIS62      -0.2267
     26  CD2       -9.1440   -1.6070    4.0480 C.ar   62  HIS62       0.1154
     27  CE1       -8.0720    0.0260    3.0520 C.ar   62  HIS62       0.1986
     28  NE2       -8.3850   -1.2530    2.9590 N.ar   62  HIS62      -0.2212
     29  N        -11.2300    1.9460   10.4550 N.3    64  TYR64      -0.1241
     30  CA       -10.5560    1.9270   11.7580 C.3    64  TYR64       0.1605
     31  C        -11.0920    3.0790   12.6020 C.2    64  TYR64       0.2264
     32  O        -11.0850    4.2310   12.1750 O.2    64  TYR64      -0.2867
     33  CB        -9.0380    2.0590   11.6020 C.3    64  TYR64       0.0534
     34  CG        -8.2940    1.8180   12.9010 C.ar   64  TYR64      -0.0201
     35  CD1       -8.2210    0.5380   13.4610 C.ar   64  TYR64      -0.0009
     36  CD2       -7.6930    2.8740   13.5900 C.ar   64  TYR64      -0.0009
     37  CE1       -7.5700    0.3180   14.6810 C.ar   64  TYR64       0.0417
     38  CE2       -7.0440    2.6640   14.8040 C.ar   64  TYR64       0.0417
     39  CZ        -6.9870    1.3870   15.3440 C.ar   64  TYR64       0.1957
     40  OH        -6.3600    1.1830   16.5530 O.3    64  TYR64      -0.2866
     41  N         -2.7350    2.7810   16.3550 N.3    69  CYS69      -0.1235
     42  CA        -2.9500    1.3830   16.7140 C.3    69  CYS69       0.1677
     43  C         -2.0760    1.0810   17.9240 C.2    69  CYS69       0.2270
     44  O         -0.8960    1.4260   17.9410 O.2    69  CYS69      -0.2867
     45  CB        -2.5560    0.4560   15.5640 C.3    69  CYS69       0.0956
     46  SG        -3.6240    0.5620   14.1190 S.3    69  CYS69      -0.0801
     47  N         -3.0800   -3.9270   14.9950 N.3    78  HIS78      -0.1241
     48  CA        -4.4090   -3.3400   14.9380 C.3    78  HIS78       0.1621
     49  C         -5.1460   -3.3120   16.2710 C.2    78  HIS78       0.2264
     50  O         -6.3780   -3.3300   16.3030 O.2    78  HIS78      -0.2867
     51  CB        -5.2540   -4.0790   13.8930 C.3    78  HIS78       0.0745
     52  CG        -4.6520   -4.0750   12.5230 C.ar   78  HIS78       0.0817
     53  ND1       -5.1470   -4.8390   11.4870 N.ar   78  HIS78      -0.2268
     54  CD2       -3.5870   -3.4050   12.0200 C.ar   78  HIS78       0.1154
     55  CE1       -4.4130   -4.6410   10.4070 C.ar   78  HIS78       0.1986
     56  NE2       -3.4590   -3.7760   10.7030 N.ar   78  HIS78      -0.2212
     57  N          1.6470    2.2880   16.8410 N.3    96  ASP96      -0.1239
     58  CA         1.8910    2.4860   15.4230 C.3    96  ASP96       0.1674
     59  C          1.1850    3.7540   14.9830 C.2    96  ASP96       0.2266
     60  O         -0.0240    3.8890   15.1310 O.2    96  ASP96      -0.2867
     61  CB         1.3670    1.2750   14.6490 C.3    96  ASP96       0.1410
     62  CG         1.8860    1.2250   13.2350 C.2    96  ASP96       0.3668
     63  OD1        2.5090    2.2140   12.8040 O.co2  96  ASP96      -0.2456
     64  OD2        1.6660    0.2010   12.5550 O.co2  96  ASP96      -0.2456
     65  N          0.7110    6.8430   11.8870 N.3    98  THR98      -0.1218
     66  CA         0.8210    7.2170   10.4890 C.3    98  THR98       0.1862
     67  C          0.1390    8.5680   10.3960 C.2    98  THR98       0.2287
     68  O         -1.0430    8.6940   10.7080 O.2    98  THR98      -0.2866
     69  CB         0.1270    6.2280    9.5340 C.3    98  THR98       0.1770
     70  OG1        0.7990    4.9590    9.5710 O.3    98  THR98      -0.2211
     71  CG2        0.1920    6.7670    8.1040 C.3    98  THR98       0.0375
     72  N          5.0190    6.9090    8.2340 N.3   107  ASP107     -0.1239
     73  CA         4.5420    5.6900    8.8920 C.3   107  ASP107      0.1674
     74  C          5.6290    5.0180    9.7430 C.2   107  ASP107      0.2266
     75  O          6.6740    4.6440    9.2300 O.2   107  ASP107     -0.2867
     76  CB         4.0520    4.7450    7.7770 C.3   107  ASP107      0.1410
     77  CG         3.2980    3.5350    8.2930 C.2   107  ASP107      0.3668
     78  OD1        3.0970    3.4010    9.5130 O.co2 107  ASP107     -0.2456
     79  OD2        2.8980    2.7060    7.4490 O.co2 107  ASP107     -0.2456
     80  N          2.5170   -7.0120    5.5910 N.3   168  CYS168     -0.1235
     81  CA         3.7920   -6.6380    5.0120 C.3   168  CYS168      0.1677
     82  C          3.9980   -5.1370    4.9280 C.2   168  CYS168      0.2270
     83  O          3.0600   -4.3540    5.1030 O.2   168  CYS168     -0.2867
     84  CB         3.8790   -7.2210    3.6050 C.3   168  CYS168      0.0956
     85  SG         2.4830   -6.6910    2.5690 S.3   168  CYS168     -0.0801
     86  N          5.1760   -1.6890    2.7710 N.3   170  HIS170     -0.1241
     87  CA         4.5320   -1.2500    1.5440 C.3   170  HIS170      0.1621
     88  C          5.0800    0.0680    1.0190 C.2   170  HIS170      0.2264
     89  O          5.6970    0.8380    1.7590 O.2   170  HIS170     -0.2867
     90  CB         3.0550   -1.0800    1.8600 C.3   170  HIS170      0.0745
     91  CG         2.8230   -0.2590    3.0920 C.ar  170  HIS170      0.0817
     92  ND1        2.8290    1.1200    3.0780 N.ar  170  HIS170     -0.2268
     93  CD2        2.7170   -0.6200    4.3930 C.ar  170  HIS170      0.1154
     94  CE1        2.7400    1.5720    4.3170 C.ar  170  HIS170      0.1986
     95  NE2        2.6720    0.5360    5.1340 N.ar  170  HIS170     -0.2212
     96  N         -1.4450    5.8860    1.5730 N.3   176  PHE176     -0.1227
     97  CA        -1.0050    5.1880    2.7770 C.3   176  PHE176      0.1736
     98  C         -0.2860    3.9120    2.3330 C.2   176  PHE176      0.2595
     99  O          0.8850    3.6920    2.6590 O.2   176  PHE176     -0.2718
    100  CB        -2.2300    4.8570    3.6390 C.3   176  PHE176      0.0547
    101  CG        -1.9060    4.3630    5.0330 C.ar  176  PHE176     -0.0202
    102  CD1       -0.6040    4.0610    5.4100 C.ar  176  PHE176     -0.0042
    103  CD2       -2.9310    4.1490    5.9510 C.ar  176  PHE176     -0.0042
    104  CE1       -0.3230    3.5450    6.6800 C.ar  176  PHE176     -0.0003
    105  CE2       -2.6640    3.6340    7.2220 C.ar  176  PHE176     -0.0003
    106  CZ        -1.3550    3.3300    7.5860 C.ar  176  PHE176     -0.0000
    107  N         -0.9860    3.0780    1.5720 N.am  177  HIS177     -0.1975
    108  CA        -0.3950    1.8400    1.0880 C.3   177  HIS177      0.1656
    109  C         -0.3220    1.8170   -0.4310 C.2   177  HIS177      0.2291
    110  O         -1.3470    1.7070   -1.1000 O.2   177  HIS177     -0.2864
    111  CB        -1.2010    0.6320    1.5740 C.3   177  HIS177      0.0771
    112  CG        -1.2810    0.5200    3.0630 C.ar  177  HIS177      0.0820
    113  ND1       -2.1780    1.2440    3.8180 N.ar  177  HIS177     -0.2267
    114  CD2       -0.5470   -0.2020    3.9420 C.ar  177  HIS177      0.1154
    115  CE1       -1.9910    0.9750    5.0980 C.ar  177  HIS177      0.1986
    116  NE2       -1.0050    0.1010    5.2000 N.ar  177  HIS177     -0.2212
    117  N          8.3570   -3.3300    8.2190 N.3   203  GLU203     -0.1245
    118  CA         7.6750   -3.4180    9.5000 C.3   203  GLU203      0.1567
    119  C          7.3810   -4.8480    9.9340 C.2   203  GLU203      0.2260
    120  O          6.2340   -5.2280   10.1390 O.2   203  GLU203     -0.2867
    121  CB         6.3730   -2.6140    9.4020 C.3   203  GLU203      0.0388
    122  CG         5.6080   -2.8750    8.0930 C.3   203  GLU203      0.1160
    123  CD         4.3270   -2.0640    7.9660 C.2   203  GLU203      0.3649
    124  OE1        3.4350   -2.2220    8.8210 O.co2 203  GLU203     -0.2457
    125  OE2        4.2070   -1.2690    7.0060 O.co2 203  GLU203     -0.2457
    126  N        -11.0090   -6.2480   14.2520 N.3   220  TRP220     -0.1241
    127  CA        -9.7240   -5.5740   14.0930 C.3   220  TRP220      0.1605
    128  C         -8.5590   -6.2120   14.8330 C.2   220  TRP220      0.2264
    129  O         -7.5390   -6.5430   14.2340 O.2   220  TRP220     -0.2867
    130  CB        -9.8330   -4.1180   14.5380 C.3   220  TRP220      0.0550
    131  CG       -10.5870   -3.2650   13.5870 C.ar  220  TRP220      0.0003
    132  CD1      -11.8490   -2.7760   13.7470 C.ar  220  TRP220      0.0946
    133  CD2      -10.1350   -2.8100   12.3100 C.ar  220  TRP220      0.0152
    134  NE1      -12.2150   -2.0410   12.6450 N.ar  220  TRP220     -0.2442
    135  CE2      -11.1810   -2.0470   11.7460 C.ar  220  TRP220      0.0810
    136  CE3       -8.9470   -2.9730   11.5850 C.ar  220  TRP220      0.0012
    137  CZ2      -11.0770   -1.4460   10.4870 C.ar  220  TRP220      0.0191
    138  CZ3       -8.8410   -2.3760   10.3320 C.ar  220  TRP220      0.0001
    139  CH2       -9.9040   -1.6210    9.7970 C.ar  220  TRP220      0.0015
    140  N          8.6940   -0.3760   12.9490 N.3   234  GLU234     -0.1245
    141  CA         8.5360    0.0750   11.5720 C.3   234  GLU234      0.1567
    142  C          9.1810    1.4200   11.3050 C.2   234  GLU234      0.2260
    143  O          9.2180    2.2910   12.1680 O.2   234  GLU234     -0.2867
    144  CB         7.0520    0.1620   11.2120 C.3   234  GLU234      0.0388
    145  CG         6.7610    0.9460    9.9260 C.3   234  GLU234      0.1160
    146  CD         5.2780    0.9670    9.5850 C.2   234  GLU234      0.3649
    147  OE1        4.4590    0.9110   10.5170 O.co2 234  GLU234     -0.2457
    148  OE2        4.9340    1.0520    8.3930 O.co2 234  GLU234     -0.2457
@<TRIPOS>BOND
     1   110   109    2
     2   109   108    1
     3    88    87    1
     4    88    89    2
     5   108   107    1
     6   108   111    1
     7    87    90    1
     8    87    86    1
     9   107    98   am
    10    96    97    1
    11   111   112    1
    12    90    91    1
    13    98    99    2
    14    98    97    1
    15    85    84    1
    16    97   100    1
    17    18    17    1
    18    28    27   ar
    19    28    26   ar
    20    27    25   ar
    21   112   113   ar
    22   112   114   ar
    23    92    91   ar
    24    92    94   ar
    25    91    93   ar
    26    84    81    1
    27   100   101    1
    28   113   115   ar
    29    15    17   ar
    30    15    13   ar
    31    17    16   ar
    32   114   116   ar
    33    26    24   ar
    34    25    24   ar
    35    94    95   ar
    36    93    95   ar
    37    24    23    1
    38    82    81    1
    39    82    83    2
    40    13    12   ar
    41    81    80    1
    42   101   102   ar
    43   101   103   ar
    44    16    14   ar
    45   115   116   ar
    46   102   104   ar
    47   103   105   ar
    48    20    23    1
    49    20    19    1
    50    20    21    1
    51    12    14   ar
    52    12    11    1
    53    19     9   am
    54   104   106   ar
    55   125   123   ar
    56     8     9    1
    57     8    11    1
    58     8     7    1
    59     9    10    2
    60   105   106   ar
    61    21    22    2
    62    79    77   ar
    63    76    77    1
    64    76    73    1
    65   123   122    1
    66   123   124   ar
    67   122   121    1
    68    71    69    1
    69   117   118    1
    70    72    73    1
    71    77    78   ar
    72   148   146   ar
    73    73    74    1
    74    75    74    2
    75   121   118    1
    76   118   119    1
    77    69    70    1
    78    69    66    1
    79   146   145    1
    80   146   147   ar
    81   139   138   ar
    82   139   137   ar
    83   145   144    1
    84     1     2    1
    85   119   120    2
    86   138   136   ar
    87     4     3    2
    88     2     3    1
    89     2     5    1
    90    67    66    1
    91    67    68    2
    92    55    56   ar
    93    55    53   ar
    94    29    30    1
    95   137   135   ar
    96    66    65    1
    97    56    54   ar
    98   144   141    1
    99     6     5    1
   100   142   141    1
   101   142   143    2
   102    53    52   ar
   103   141   140    1
   104   136   133   ar
   105    33    30    1
   106    33    34    1
   107   135   133   ar
   108   135   134   ar
   109    30    31    1
   110    54    52   ar
   111    32    31    2
   112   133   131   ar
   113    52    51    1
   114    64    62   ar
   115   134   132   ar
   116    63    62   ar
   117    34    35   ar
   118    34    36   ar
   119    62    61    1
   120    35    37   ar
   121   131   132   ar
   122   131   130    1
   123    36    38   ar
   124    51    48    1
   125   127   126    1
   126   127   130    1
   127   127   128    1
   128    46    45    1
   129   129   128    2
   130    61    58    1
   131    37    39   ar
   132    38    39   ar
   133    48    47    1
   134    48    49    1
   135    59    60    2
   136    59    58    1
   137    39    40    1
   138    58    57    1
   139    45    42    1
   140    49    50    2
   141    41    42    1
   142    42    43    1
   143    43    44    2
