@<TRIPOS>MOLECULE
tmp/2q93A00.pdb
 160 156 0 0 0
SMALL
GASTEIGER

@<TRIPOS>ATOM
      1  N         -5.4810    6.4830   10.1910 N.3    58  CYS58      -0.1235
      2  CA        -6.2000    5.2860   10.6280 C.3    58  CYS58       0.1677
      3  C         -7.6760    5.5380   10.9390 C.2    58  CYS58       0.2270
      4  O         -8.5190    4.6650   10.7260 O.2    58  CYS58      -0.2867
      5  CB        -5.5230    4.6740   11.8600 C.3    58  CYS58       0.0956
      6  SG        -3.9050    3.9310   11.5300 S.3    58  CYS58      -0.0801
      7  N        -10.3920    4.7020    8.3380 N.3    61  TYR61      -0.1227
      8  CA        -9.7960    3.8030    7.3470 C.3    61  TYR61       0.1736
      9  C        -10.4430    2.4180    7.4080 C.2    61  TYR61       0.2595
     10  O        -10.2590    1.6710    8.3730 O.2    61  TYR61      -0.2718
     11  CB        -8.2900    3.7090    7.6000 C.3    61  TYR61       0.0548
     12  CG        -7.5280    2.8850    6.5910 C.ar   61  TYR61      -0.0200
     13  CD1       -7.5510    3.2090    5.2370 C.ar   61  TYR61      -0.0009
     14  CD2       -6.7700    1.7850    6.9930 C.ar   61  TYR61      -0.0009
     15  CE1       -6.8460    2.4590    4.3080 C.ar   61  TYR61       0.0417
     16  CE2       -6.0580    1.0300    6.0710 C.ar   61  TYR61       0.0417
     17  CZ        -6.1000    1.3710    4.7300 C.ar   61  TYR61       0.1957
     18  OH        -5.4090    0.6130    3.8160 O.3    61  TYR61      -0.2866
     19  N        -11.1980    2.0850    6.3650 N.am   62  HIS62      -0.1975
     20  CA       -11.9230    0.8200    6.2920 C.3    62  HIS62       0.1656
     21  C        -12.8780    0.7180    7.4760 C.2    62  HIS62       0.2291
     22  O        -13.2840   -0.3730    7.8690 O.2    62  HIS62      -0.2864
     23  CB       -10.9580   -0.3740    6.2820 C.3    62  HIS62       0.0771
     24  CG       -10.1760   -0.5070    5.0110 C.ar   62  HIS62       0.0820
     25  ND1      -10.7760   -0.5650    3.7710 N.ar   62  HIS62      -0.2267
     26  CD2       -8.8450   -0.6130    4.7890 C.ar   62  HIS62       0.1154
     27  CE1       -9.8490   -0.7010    2.8400 C.ar   62  HIS62       0.1986
     28  NE2       -8.6680   -0.7330    3.4300 N.ar   62  HIS62      -0.2212
     29  N        -12.1600    1.7890   10.5770 N.3    64  TYR64      -0.1241
     30  CA       -11.4660    1.7150   11.8580 C.3    64  TYR64       0.1605
     31  C        -11.9450    2.8950   12.7140 C.2    64  TYR64       0.2264
     32  O        -11.9250    4.0400   12.2710 O.2    64  TYR64      -0.2867
     33  CB        -9.9560    1.7660   11.6470 C.3    64  TYR64       0.0534
     34  CG        -9.1710    1.4310   12.8910 C.ar   64  TYR64      -0.0201
     35  CD1       -9.1380    0.1310   13.3980 C.ar   64  TYR64      -0.0009
     36  CD2       -8.4710    2.4230   13.5750 C.ar   64  TYR64      -0.0009
     37  CE1       -8.4230   -0.1670   14.5640 C.ar   64  TYR64       0.0417
     38  CE2       -7.7610    2.1380   14.7300 C.ar   64  TYR64       0.0417
     39  CZ        -7.7370    0.8500   15.2200 C.ar   64  TYR64       0.1957
     40  OH        -7.0260    0.6010   16.3720 O.3    64  TYR64      -0.2866
     41  N         -3.3160    2.3360   16.4680 N.3    69  CYS69      -0.1235
     42  CA        -3.5680    0.9460   16.8080 C.3    69  CYS69       0.1677
     43  C         -2.6880    0.6340   17.9990 C.2    69  CYS69       0.2270
     44  O         -1.5250    1.0200   18.0420 O.2    69  CYS69      -0.2867
     45  CB        -3.2220    0.0170   15.6440 C.3    69  CYS69       0.0956
     46  SG        -4.2360    0.2660   14.1680 S.3    69  CYS69      -0.0801
     47  N         -3.4350   -4.2500   14.7850 N.3    78  HIS78      -0.1241
     48  CA        -4.7660   -3.6600   14.7280 C.3    78  HIS78       0.1621
     49  C         -5.5630   -3.7130   16.0310 C.2    78  HIS78       0.2264
     50  O         -6.7940   -3.7050   16.0130 O.2    78  HIS78      -0.2867
     51  CB        -5.5580   -4.3000   13.5800 C.3    78  HIS78       0.0745
     52  CG        -4.8710   -4.1950   12.2530 C.ar   78  HIS78       0.0817
     53  ND1       -5.3450   -4.8090   11.1140 N.ar   78  HIS78      -0.2268
     54  CD2       -3.7340   -3.5540   11.8870 C.ar   78  HIS78       0.1154
     55  CE1       -4.5300   -4.5520   10.1050 C.ar   78  HIS78       0.1986
     56  NE2       -3.5450   -3.7920   10.5480 N.ar   78  HIS78      -0.2212
     57  N          1.0300    1.9370   17.0110 N.3    96  ASP96      -0.1239
     58  CA         1.3160    2.2030   15.6080 C.3    96  ASP96       0.1674
     59  C          0.6280    3.4940   15.2000 C.2    96  ASP96       0.2266
     60  O         -0.5810    3.6360   15.3660 O.2    96  ASP96      -0.2867
     61  CB         0.8130    1.0480   14.7410 C.3    96  ASP96       0.1410
     62  CG         1.3810    1.0790   13.3310 C.2    96  ASP96       0.3668
     63  OD1        2.0770    2.0510   12.9630 O.co2  96  ASP96      -0.2456
     64  OD2        1.1260    0.1170   12.5750 O.co2  96  ASP96      -0.2456
     65  N          0.1420    6.6970   12.1610 N.3    98  THR98      -0.1218
     66  CA         0.2740    7.1540   10.7880 C.3    98  THR98       0.1862
     67  C         -0.4390    8.4930   10.7110 C.2    98  THR98       0.2287
     68  O         -1.6420    8.5880   10.9640 O.2    98  THR98      -0.2866
     69  CB        -0.3350    6.1800    9.7630 C.3    98  THR98       0.1770
     70  OG1        0.4000    4.9540    9.7850 O.3    98  THR98      -0.2211
     71  CG2       -0.2410    6.7720    8.3600 C.3    98  THR98       0.0375
     72  N          4.5720    6.9810    8.6550 N.3   107  ASP107     -0.1239
     73  CA         4.1340    5.7190    9.2600 C.3   107  ASP107      0.1674
     74  C          5.2140    5.0860   10.1480 C.2   107  ASP107      0.2266
     75  O          6.3080    4.7630    9.6800 O.2   107  ASP107     -0.2867
     76  CB         3.7490    4.7660    8.1140 C.3   107  ASP107      0.1410
     77  CG         2.9400    3.5670    8.5700 C.2   107  ASP107      0.3668
     78  OD1        2.7300    3.3930    9.7840 O.co2 107  ASP107     -0.2456
     79  OD2        2.5160    2.7830    7.6890 O.co2 107  ASP107     -0.2456
     80  N          0.8520   -9.7920    6.6780 N.3   167  TYR167     -0.1227
     81  CA         1.0790   -8.3670    6.4910 C.3   167  TYR167      0.1736
     82  C          2.4840   -8.0440    6.0130 C.2   167  TYR167      0.2595
     83  O          3.4050   -8.8490    6.1660 O.2   167  TYR167     -0.2718
     84  CB         0.7660   -7.6200    7.7880 C.3   167  TYR167      0.0548
     85  CG        -0.6450   -7.8600    8.2780 C.ar  167  TYR167     -0.0200
     86  CD1       -0.9480   -8.9530    9.0940 C.ar  167  TYR167     -0.0009
     87  CD2       -1.6860   -7.0200    7.8920 C.ar  167  TYR167     -0.0009
     88  CE1       -2.2630   -9.2010    9.5120 C.ar  167  TYR167      0.0417
     89  CE2       -2.9990   -7.2580    8.3010 C.ar  167  TYR167      0.0417
     90  CZ        -3.2790   -8.3490    9.1090 C.ar  167  TYR167      0.1957
     91  OH        -4.5810   -8.5890    9.4950 O.3   167  TYR167     -0.2866
     92  N          2.6430   -6.8600    5.4310 N.am  168  CYS168     -0.1970
     93  CA         3.9350   -6.4490    4.8960 C.3   168  CYS168      0.1712
     94  C          4.1370   -4.9420    4.9130 C.2   168  CYS168      0.2296
     95  O          3.2060   -4.1770    5.1660 O.2   168  CYS168     -0.2864
     96  CB         4.0450   -6.9280    3.4530 C.3   168  CYS168      0.0983
     97  SG         2.7180   -6.2660    2.3960 S.3   168  CYS168     -0.0798
     98  N          5.2530   -1.3650    2.9360 N.3   170  HIS170     -0.1241
     99  CA         4.6390   -0.8520    1.7160 C.3   170  HIS170      0.1621
    100  C          5.1510    0.5070    1.2970 C.2   170  HIS170      0.2264
    101  O          5.6970    1.2610    2.1040 O.2   170  HIS170     -0.2867
    102  CB         3.1410   -0.7160    1.9700 C.3   170  HIS170      0.0745
    103  CG         2.8360    0.0400    3.2260 C.ar  170  HIS170      0.0817
    104  ND1        2.7100    1.4120    3.2610 N.ar  170  HIS170     -0.2268
    105  CD2        2.7720   -0.3750    4.5120 C.ar  170  HIS170      0.1154
    106  CE1        2.5880    1.8100    4.5140 C.ar  170  HIS170      0.1986
    107  NE2        2.6230    0.7450    5.2930 N.ar  170  HIS170     -0.2212
    108  N         -1.6510    6.0690    1.7920 N.3   176  PHE176     -0.1227
    109  CA        -1.2420    5.3290    2.9850 C.3   176  PHE176      0.1736
    110  C         -0.4000    4.1330    2.5540 C.2   176  PHE176      0.2595
    111  O          0.7630    3.9880    2.9560 O.2   176  PHE176     -0.2718
    112  CB        -2.4920    4.8420    3.7240 C.3   176  PHE176      0.0547
    113  CG        -2.2420    4.3490    5.1280 C.ar  176  PHE176     -0.0202
    114  CD1       -0.9710    3.9500    5.5490 C.ar  176  PHE176     -0.0042
    115  CD2       -3.3080    4.2310    6.0160 C.ar  176  PHE176     -0.0042
    116  CE1       -0.7760    3.4390    6.8340 C.ar  176  PHE176     -0.0003
    117  CE2       -3.1230    3.7220    7.2990 C.ar  176  PHE176     -0.0003
    118  CZ        -1.8530    3.3250    7.7070 C.ar  176  PHE176     -0.0000
    119  N         -0.9980    3.2740    1.7340 N.am  177  HIS177     -0.1975
    120  CA        -0.3190    2.0850    1.2330 C.3   177  HIS177      0.1656
    121  C         -0.1960    2.1190   -0.2860 C.2   177  HIS177      0.2291
    122  O         -1.1970    2.0670   -1.0020 O.2   177  HIS177     -0.2864
    123  CB        -1.0740    0.8140    1.6400 C.3   177  HIS177      0.0771
    124  CG        -1.2980    0.6860    3.1150 C.ar  177  HIS177      0.0820
    125  ND1       -2.3680    1.2680    3.7610 N.ar  177  HIS177     -0.2267
    126  CD2       -0.5800    0.0530    4.0720 C.ar  177  HIS177      0.1154
    127  CE1       -2.3010    0.9980    5.0520 C.ar  177  HIS177      0.1986
    128  NE2       -1.2240    0.2620    5.2670 N.ar  177  HIS177     -0.2212
    129  N          8.2720   -3.0690    8.3810 N.3   203  GLU203     -0.1245
    130  CA         7.5670   -3.2390    9.6450 C.3   203  GLU203      0.1567
    131  C          7.3000   -4.6980    9.9680 C.2   203  GLU203      0.2260
    132  O          6.1570   -5.1390   10.0080 O.2   203  GLU203     -0.2867
    133  CB         6.2430   -2.4730    9.5670 C.3   203  GLU203      0.0388
    134  CG         5.4540   -2.7480    8.2790 C.3   203  GLU203      0.1160
    135  CD         4.1980   -1.9010    8.1630 C.2   203  GLU203      0.3649
    136  OE1        3.3550   -1.9700    9.0780 O.co2 203  GLU203     -0.2457
    137  OE2        4.0600   -1.1680    7.1560 O.co2 203  GLU203     -0.2457
    138  N        -11.3720   -6.6910   13.8070 N.3   220  TRP220     -0.1241
    139  CA       -10.1220   -5.9350   13.7380 C.3   220  TRP220      0.1605
    140  C         -8.9130   -6.5810   14.4080 C.2   220  TRP220      0.2264
    141  O         -7.8420   -6.6880   13.8140 O.2   220  TRP220     -0.2867
    142  CB       -10.3130   -4.5540   14.3710 C.3   220  TRP220      0.0550
    143  CG       -11.2060   -3.6410   13.6040 C.ar  220  TRP220      0.0003
    144  CD1      -12.4270   -3.1710   13.9910 C.ar  220  TRP220      0.0946
    145  CD2      -10.9400   -3.0680   12.3200 C.ar  220  TRP220      0.0152
    146  NE1      -12.9400   -2.3370   13.0260 N.ar  220  TRP220     -0.2442
    147  CE2      -12.0470   -2.2560   11.9890 C.ar  220  TRP220      0.0810
    148  CE3       -9.8710   -3.1630   11.4160 C.ar  220  TRP220      0.0012
    149  CZ2      -12.1180   -1.5380   10.7910 C.ar  220  TRP220      0.0191
    150  CZ3       -9.9410   -2.4470   10.2190 C.ar  220  TRP220      0.0001
    151  CH2      -11.0600   -1.6450    9.9210 C.ar  220  TRP220      0.0015
    152  N          8.3030   -0.3640   13.2540 N.3   234  GLU234     -0.1245
    153  CA         8.1440    0.1430   11.9040 C.3   234  GLU234      0.1567
    154  C          8.7920    1.5040   11.7190 C.2   234  GLU234      0.2260
    155  O          8.7610    2.3470   12.6150 O.2   234  GLU234     -0.2867
    156  CB         6.6440    0.2360   11.5840 C.3   234  GLU234      0.0388
    157  CG         6.2690    1.1350   10.4230 C.3   234  GLU234      0.1160
    158  CD         4.7880    1.0480   10.0880 C.2   234  GLU234      0.3649
    159  OE1        3.9640    0.9920   11.0310 O.co2 234  GLU234     -0.2457
    160  OE2        4.4590    1.0450    8.8850 O.co2 234  GLU234     -0.2457
@<TRIPOS>BOND
     1   122   121    2
     2   121   120    1
     3   120   123    1
     4   120   119    1
     5   100    99    1
     6   100   101    2
     7   123   124    1
     8    99   102    1
     9    99    98    1
    10   119   110   am
    11   108   109    1
    12   102   103    1
    13    97    96    1
    14   110   111    2
    15   110   109    1
    16    27    28   ar
    17    27    25   ar
    18   109   112    1
    19   124   125   ar
    20   124   126   ar
    21   103   104   ar
    22   103   105   ar
    23   104   106   ar
    24    28    26   ar
    25    96    93    1
    26   112   113    1
    27   125   127   ar
    28    25    24   ar
    29    18    17    1
    30   126   128   ar
    31    15    17   ar
    32    15    13   ar
    33   105   107   ar
    34   106   107   ar
    35    17    16   ar
    36    26    24   ar
    37    93    94    1
    38    93    92    1
    39    94    95    2
    40    24    23    1
    41   127   128   ar
    42   113   114   ar
    43   113   115   ar
    44    13    12   ar
    45    92    82   am
    46   114   116   ar
    47    82    83    2
    48    82    81    1
    49   115   117   ar
    50    16    14   ar
    51    23    20    1
    52    20    19    1
    53    20    21    1
    54    19     9   am
    55    81    80    1
    56    81    84    1
    57    12    14   ar
    58    12    11    1
    59   116   118   ar
    60   137   135   ar
    61   117   118   ar
    62     8     9    1
    63     8    11    1
    64     8     7    1
    65     9    10    2
    66    21    22    2
    67    79    77   ar
    68    84    85    1
    69    87    85   ar
    70    87    89   ar
    71    76    77    1
    72    76    73    1
    73   135   134    1
    74   135   136   ar
    75    85    86   ar
    76   134   133    1
    77    89    90   ar
    78    71    69    1
    79   129   130    1
    80    77    78   ar
    81    72    73    1
    82   160   158   ar
    83    86    88   ar
    84    90    91    1
    85    90    88   ar
    86    73    74    1
    87   133   130    1
    88   130   131    1
    89    75    74    2
    90    69    70    1
    91    69    66    1
    92   151   150   ar
    93   151   149   ar
    94   131   132    2
    95   158   157    1
    96   158   159   ar
    97    55    56   ar
    98    55    53   ar
    99     1     2    1
   100   150   148   ar
   101   157   156    1
   102    56    54   ar
   103    29    30    1
   104     2     3    1
   105     2     5    1
   106    67    66    1
   107    67    68    2
   108     4     3    2
   109    66    65    1
   110   149   147   ar
   111    53    52   ar
   112   148   145   ar
   113     6     5    1
   114   156   153    1
   115    33    30    1
   116    33    34    1
   117   154   153    1
   118   154   155    2
   119    30    31    1
   120    54    52   ar
   121   153   152    1
   122   147   145   ar
   123   147   146   ar
   124    52    51    1
   125    32    31    2
   126   145   143   ar
   127    64    62   ar
   128    34    35   ar
   129    34    36   ar
   130    63    62   ar
   131   146   144   ar
   132    62    61    1
   133    35    37   ar
   134    36    38   ar
   135    51    48    1
   136   143   144   ar
   137   143   142    1
   138   139   138    1
   139   139   142    1
   140   139   140    1
   141   141   140    2
   142    46    45    1
   143    37    39   ar
   144    48    47    1
   145    48    49    1
   146    38    39   ar
   147    61    58    1
   148    59    60    2
   149    59    58    1
   150    39    40    1
   151    58    57    1
   152    45    42    1
   153    50    49    2
   154    41    42    1
   155    42    43    1
   156    43    44    2
