@<TRIPOS>MOLECULE
tmp/2q94A00.pdb
 160 156 0 0 0
SMALL
GASTEIGER

@<TRIPOS>ATOM
      1  N         -4.7150    6.9080   10.1320 N.3    58  CYS58      -0.1235
      2  CA        -5.3660    5.7060   10.6490 C.3    58  CYS58       0.1677
      3  C         -6.8500    5.8980   10.9330 C.2    58  CYS58       0.2270
      4  O         -7.6760    5.0580   10.5770 O.2    58  CYS58      -0.2867
      5  CB        -4.6830    5.2500   11.9420 C.3    58  CYS58       0.0956
      6  SG        -2.9370    4.8230   11.7770 S.3    58  CYS58      -0.0801
      7  N         -9.5670    4.9330    8.4890 N.3    61  TYR61      -0.1227
      8  CA        -9.0030    4.1780    7.3770 C.3    61  TYR61       0.1736
      9  C         -9.6110    2.7830    7.3060 C.2    61  TYR61       0.2595
     10  O         -9.4280    1.9680    8.2090 O.2    61  TYR61      -0.2718
     11  CB        -7.4870    4.0640    7.5390 C.3    61  TYR61       0.0548
     12  CG        -6.7970    3.4480    6.3440 C.ar   61  TYR61      -0.0200
     13  CD1       -6.6800    4.1480    5.1430 C.ar   61  TYR61      -0.0009
     14  CD2       -6.2690    2.1590    6.4090 C.ar   61  TYR61      -0.0009
     15  CE1       -6.0530    3.5790    4.0350 C.ar   61  TYR61       0.0417
     16  CE2       -5.6430    1.5800    5.3120 C.ar   61  TYR61       0.0417
     17  CZ        -5.5380    2.2940    4.1260 C.ar   61  TYR61       0.1957
     18  OH        -4.9260    1.7260    3.0300 O.3    61  TYR61      -0.2866
     19  N        -10.3260    2.4990    6.2200 N.am   62  HIS62      -0.1975
     20  CA       -10.9830    1.2070    6.0700 C.3    62  HIS62       0.1656
     21  C        -11.9610    1.0070    7.2220 C.2    62  HIS62       0.2291
     22  O        -12.3520   -0.1150    7.5250 O.2    62  HIS62      -0.2864
     23  CB        -9.9640    0.0600    6.0590 C.3    62  HIS62       0.0771
     24  CG        -9.2720   -0.1270    4.7460 C.ar   62  HIS62       0.0820
     25  ND1       -8.6910    0.9140    4.0560 N.ar   62  HIS62      -0.2267
     26  CD2       -9.0380   -1.2420    4.0150 C.ar   62  HIS62       0.1154
     27  CE1       -8.1270    0.4480    2.9560 C.ar   62  HIS62       0.1986
     28  NE2       -8.3230   -0.8590    2.9080 N.ar   62  HIS62      -0.2212
     29  N        -11.3290    2.0070   10.4390 N.3    64  TYR64      -0.1241
     30  CA       -10.6570    1.9180   11.7320 C.3    64  TYR64       0.1605
     31  C        -11.1430    3.0690   12.6150 C.2    64  TYR64       0.2264
     32  O        -11.0870    4.2310   12.2250 O.2    64  TYR64      -0.2867
     33  CB        -9.1470    1.9940   11.5560 C.3    64  TYR64       0.0534
     34  CG        -8.3780    1.6540   12.8120 C.ar   64  TYR64      -0.0201
     35  CD1       -8.2630    0.3330   13.2490 C.ar   64  TYR64      -0.0009
     36  CD2       -7.7940    2.6580   13.5830 C.ar   64  TYR64      -0.0009
     37  CE1       -7.5830    0.0270   14.4350 C.ar   64  TYR64       0.0417
     38  CE2       -7.1210    2.3640   14.7560 C.ar   64  TYR64       0.0417
     39  CZ        -7.0190    1.0500   15.1800 C.ar   64  TYR64       0.1957
     40  OH        -6.3630    0.7750   16.3590 O.3    64  TYR64      -0.2866
     41  N         -2.6390    2.6880   16.4070 N.3    69  CYS69      -0.1235
     42  CA        -2.8740    1.2930   16.7780 C.3    69  CYS69       0.1677
     43  C         -1.9830    1.0120   17.9710 C.2    69  CYS69       0.2270
     44  O         -0.8130    1.3850   17.9690 O.2    69  CYS69      -0.2867
     45  CB        -2.4830    0.3300   15.6530 C.3    69  CYS69       0.0956
     46  SG        -3.5280    0.3950   14.1830 S.3    69  CYS69      -0.0801
     47  N         -2.9160   -4.0430   14.9170 N.3    78  HIS78      -0.1241
     48  CA        -4.2270   -3.4190   14.8670 C.3    78  HIS78       0.1621
     49  C         -4.9790   -3.3450   16.1870 C.2    78  HIS78       0.2264
     50  O         -6.2060   -3.2780   16.2000 O.2    78  HIS78      -0.2867
     51  CB        -5.0790   -4.1170   13.7950 C.3    78  HIS78       0.0745
     52  CG        -4.4450   -4.1150   12.4410 C.ar   78  HIS78       0.0817
     53  ND1       -4.9730   -4.7960   11.3630 N.ar   78  HIS78      -0.2268
     54  CD2       -3.3120   -3.5230   11.9890 C.ar   78  HIS78       0.1154
     55  CE1       -4.1940   -4.6230   10.3110 C.ar   78  HIS78       0.1986
     56  NE2       -3.1800   -3.8570   10.6620 N.ar   78  HIS78      -0.2212
     57  N          1.7080    2.2580   16.8670 N.3    96  ASP96      -0.1239
     58  CA         1.9440    2.4580   15.4470 C.3    96  ASP96       0.1674
     59  C          1.2690    3.7480   15.0080 C.2    96  ASP96       0.2266
     60  O          0.0590    3.9130   15.1620 O.2    96  ASP96      -0.2867
     61  CB         1.3890    1.2690   14.6530 C.3    96  ASP96       0.1410
     62  CG         1.8640    1.2620   13.2190 C.2    96  ASP96       0.3668
     63  OD1        2.4250    2.2880   12.7850 O.co2  96  ASP96      -0.2456
     64  OD2        1.6810    0.2370   12.5290 O.co2  96  ASP96      -0.2456
     65  N          0.7460    6.8610   11.9460 N.3    98  THR98      -0.1218
     66  CA         0.7940    7.2280   10.5420 C.3    98  THR98       0.1862
     67  C          0.1440    8.5930   10.4440 C.2    98  THR98       0.2287
     68  O         -1.0270    8.7680   10.7830 O.2    98  THR98      -0.2866
     69  CB         0.0760    6.2310    9.6240 C.3    98  THR98       0.1770
     70  OG1        0.7420    4.9630    9.6890 O.3    98  THR98      -0.2211
     71  CG2        0.1310    6.7250    8.1810 C.3    98  THR98       0.0375
     72  N          4.9810    6.8300    8.2310 N.3   107  ASP107     -0.1239
     73  CA         4.5060    5.6240    8.9080 C.3   107  ASP107      0.1674
     74  C          5.6040    4.9610    9.7540 C.2   107  ASP107      0.2266
     75  O          6.6320    4.5460    9.2270 O.2   107  ASP107     -0.2867
     76  CB         4.0000    4.6680    7.8160 C.3   107  ASP107      0.1410
     77  CG         3.2440    3.4820    8.3620 C.2   107  ASP107      0.3668
     78  OD1        3.0580    3.3850    9.5930 O.co2 107  ASP107     -0.2456
     79  OD2        2.8260    2.6380    7.5400 O.co2 107  ASP107     -0.2456
     80  N          0.9000  -10.0320    7.0260 N.3   167  TYR167     -0.1227
     81  CA         1.1300   -8.6000    6.8870 C.3   167  TYR167      0.1736
     82  C          2.5030   -8.2830    6.3450 C.2   167  TYR167      0.2595
     83  O          3.4630   -9.0230    6.5580 O.2   167  TYR167     -0.2718
     84  CB         0.9120   -7.8920    8.2310 C.3   167  TYR167      0.0548
     85  CG        -0.4520   -8.1820    8.7930 C.ar  167  TYR167     -0.0200
     86  CD1       -0.6570   -9.2590    9.6510 C.ar  167  TYR167     -0.0009
     87  CD2       -1.5600   -7.4460    8.3800 C.ar  167  TYR167     -0.0009
     88  CE1       -1.9360   -9.6000   10.0770 C.ar  167  TYR167      0.0417
     89  CE2       -2.8400   -7.7750    8.7960 C.ar  167  TYR167      0.0417
     90  CZ        -3.0220   -8.8530    9.6410 C.ar  167  TYR167      0.1957
     91  OH        -4.2880   -9.2040   10.0420 O.3   167  TYR167     -0.2866
     92  N          2.6100   -7.1550    5.6530 N.am  168  CYS168     -0.1970
     93  CA         3.8560   -6.7450    5.0360 C.3   168  CYS168      0.1712
     94  C          4.0680   -5.2360    4.9920 C.2   168  CYS168      0.2296
     95  O          3.1570   -4.4480    5.2960 O.2   168  CYS168     -0.2864
     96  CB         3.9000   -7.2690    3.6040 C.3   168  CYS168      0.0983
     97  SG         2.5380   -6.6440    2.5750 S.3   168  CYS168     -0.0798
     98  N          5.1720   -1.7590    2.7780 N.3   170  HIS170     -0.1241
     99  CA         4.5040   -1.2780    1.5780 C.3   170  HIS170      0.1621
    100  C          5.0570    0.0340    1.0540 C.2   170  HIS170      0.2264
    101  O          5.6810    0.8010    1.7870 O.2   170  HIS170     -0.2867
    102  CB         3.0320   -1.0680    1.9210 C.3   170  HIS170      0.0745
    103  CG         2.8350   -0.2380    3.1540 C.ar  170  HIS170      0.0817
    104  ND1        2.8120    1.1400    3.1280 N.ar  170  HIS170     -0.2268
    105  CD2        2.7660   -0.5890    4.4610 C.ar  170  HIS170      0.1154
    106  CE1        2.7390    1.6010    4.3650 C.ar  170  HIS170      0.1986
    107  NE2        2.7110    0.5720    5.1930 N.ar  170  HIS170     -0.2212
    108  N         -1.4780    5.8670    1.6060 N.3   176  PHE176     -0.1227
    109  CA        -1.0270    5.1930    2.8190 C.3   176  PHE176      0.1736
    110  C         -0.3090    3.9100    2.3900 C.2   176  PHE176      0.2595
    111  O          0.8580    3.6890    2.7210 O.2   176  PHE176     -0.2718
    112  CB        -2.2470    4.8720    3.6920 C.3   176  PHE176      0.0547
    113  CG        -1.9210    4.3710    5.0810 C.ar  176  PHE176     -0.0202
    114  CD1       -0.6400    3.9680    5.4340 C.ar  176  PHE176     -0.0042
    115  CD2       -2.9360    4.2500    6.0220 C.ar  176  PHE176     -0.0042
    116  CE1       -0.3790    3.4440    6.7050 C.ar  176  PHE176     -0.0003
    117  CE2       -2.6900    3.7310    7.2880 C.ar  176  PHE176     -0.0003
    118  CZ        -1.4060    3.3250    7.6310 C.ar  176  PHE176     -0.0000
    119  N         -1.0090    3.0670    1.6420 N.am  177  HIS177     -0.1975
    120  CA        -0.4190    1.8250    1.1700 C.3   177  HIS177      0.1656
    121  C         -0.3380    1.8090   -0.3510 C.2   177  HIS177      0.2291
    122  O         -1.3630    1.7740   -1.0340 O.2   177  HIS177     -0.2864
    123  CB        -1.2320    0.6270    1.6680 C.3   177  HIS177      0.0771
    124  CG        -1.2890    0.5190    3.1620 C.ar  177  HIS177      0.0820
    125  ND1       -2.2800    1.1090    3.9170 N.ar  177  HIS177     -0.2267
    126  CD2       -0.4500   -0.0740    4.0430 C.ar  177  HIS177      0.1154
    127  CE1       -2.0480    0.8840    5.1990 C.ar  177  HIS177      0.1986
    128  NE2       -0.9420    0.1680    5.3020 N.ar  177  HIS177     -0.2212
    129  N          8.4970   -3.3440    8.1680 N.3   203  GLU203     -0.1245
    130  CA         7.8200   -3.4250    9.4560 C.3   203  GLU203      0.1567
    131  C          7.5210   -4.8620    9.8730 C.2   203  GLU203      0.2260
    132  O          6.3650   -5.2630   10.0100 O.2   203  GLU203     -0.2867
    133  CB         6.5180   -2.6220    9.3590 C.3   203  GLU203      0.0388
    134  CG         5.7140   -2.9330    8.0830 C.3   203  GLU203      0.1160
    135  CD         4.4460   -2.1010    7.9560 C.2   203  GLU203      0.3649
    136  OE1        3.6280   -2.1300    8.8900 O.co2 203  GLU203     -0.2457
    137  OE2        4.2620   -1.4230    6.9240 O.co2 203  GLU203     -0.2457
    138  N        -10.8560   -6.2620   14.1180 N.3   220  TRP220     -0.1241
    139  CA        -9.5520   -5.6260   13.9460 C.3   220  TRP220      0.1605
    140  C         -8.4140   -6.2740   14.7260 C.2   220  TRP220      0.2264
    141  O         -7.3620   -6.5900   14.1660 O.2   220  TRP220     -0.2867
    142  CB        -9.6260   -4.1470   14.3440 C.3   220  TRP220      0.0550
    143  CG       -10.4540   -3.2990   13.4330 C.ar  220  TRP220      0.0003
    144  CD1      -11.6900   -2.7790   13.6940 C.ar  220  TRP220      0.0946
    145  CD2      -10.1070   -2.8630   12.1120 C.ar  220  TRP220      0.0152
    146  NE1      -12.1330   -2.0450   12.6190 N.ar  220  TRP220     -0.2442
    147  CE2      -11.1810   -2.0820   11.6350 C.ar  220  TRP220      0.0810
    148  CE3       -8.9900   -3.0580   11.2880 C.ar  220  TRP220      0.0012
    149  CZ2      -11.1740   -1.4920   10.3650 C.ar  220  TRP220      0.0191
    150  CZ3       -8.9850   -2.4720   10.0240 C.ar  220  TRP220      0.0001
    151  CH2      -10.0710   -1.6980    9.5770 C.ar  220  TRP220      0.0015
    152  N          8.7560   -0.3880   12.9280 N.3   234  GLU234     -0.1245
    153  CA         8.5800    0.0620   11.5460 C.3   234  GLU234      0.1567
    154  C          9.2330    1.4040   11.2610 C.2   234  GLU234      0.2260
    155  O          9.2520    2.2810   12.1100 O.2   234  GLU234     -0.2867
    156  CB         7.0790    0.1450   11.2270 C.3   234  GLU234      0.0388
    157  CG         6.7240    0.8900    9.9440 C.3   234  GLU234      0.1160
    158  CD         5.2350    0.9020    9.6730 C.2   234  GLU234      0.3649
    159  OE1        4.4630    0.8500   10.6470 O.co2 234  GLU234     -0.2457
    160  OE2        4.8400    0.9810    8.4920 O.co2 234  GLU234     -0.2457
@<TRIPOS>BOND
     1   122   121    2
     2   121   120    1
     3   100    99    1
     4   100   101    2
     5   120   119    1
     6   120   123    1
     7    99   102    1
     8    99    98    1
     9   108   109    1
    10   119   110   am
    11   123   124    1
    12   102   103    1
    13   110   111    2
    14   110   109    1
    15    97    96    1
    16   109   112    1
    17    28    27   ar
    18    28    26   ar
    19    27    25   ar
    20    18    17    1
    21   104   103   ar
    22   104   106   ar
    23   103   105   ar
    24   124   125   ar
    25   124   126   ar
    26    96    93    1
    27   112   113    1
    28   125   127   ar
    29    26    24   ar
    30    15    17   ar
    31    15    13   ar
    32   126   128   ar
    33    25    24   ar
    34    17    16   ar
    35   106   107   ar
    36   105   107   ar
    37    24    23    1
    38    94    93    1
    39    94    95    2
    40    93    92    1
    41   113   114   ar
    42   113   115   ar
    43    13    12   ar
    44   127   128   ar
    45    16    14   ar
    46   114   116   ar
    47    92    82   am
    48   115   117   ar
    49    23    20    1
    50    20    19    1
    51    20    21    1
    52    19     9   am
    53    12    14   ar
    54    12    11    1
    55    82    83    2
    56    82    81    1
    57   116   118   ar
    58    81    80    1
    59    81    84    1
    60   137   135   ar
    61    21    22    2
    62   117   118   ar
    63     9     8    1
    64     9    10    2
    65     8    11    1
    66     8     7    1
    67    79    77   ar
    68    76    77    1
    69    76    73    1
    70   135   134    1
    71   135   136   ar
    72   134   133    1
    73   129   130    1
    74    71    69    1
    75    84    85    1
    76    72    73    1
    77    77    78   ar
    78    87    85   ar
    79    87    89   ar
    80   160   158   ar
    81    85    86   ar
    82    89    90   ar
    83    73    74    1
    84    75    74    2
    85   133   130    1
    86   130   131    1
    87   151   150   ar
    88   151   149   ar
    89    69    70    1
    90    69    66    1
    91    90    91    1
    92    90    88   ar
    93    86    88   ar
    94   158   157    1
    95   158   159   ar
    96   131   132    2
    97   157   156    1
    98   150   148   ar
    99     1     2    1
   100    55    56   ar
   101    55    53   ar
   102   149   147   ar
   103    29    30    1
   104    67    66    1
   105    67    68    2
   106    66    65    1
   107     4     3    2
   108     2     3    1
   109     2     5    1
   110    56    54   ar
   111   156   153    1
   112   154   153    1
   113   154   155    2
   114   148   145   ar
   115    53    52   ar
   116   153   152    1
   117    33    30    1
   118    33    34    1
   119   147   145   ar
   120   147   146   ar
   121    30    31    1
   122     6     5    1
   123    54    52   ar
   124   145   143   ar
   125    32    31    2
   126    52    51    1
   127    64    62   ar
   128   146   144   ar
   129    63    62   ar
   130    34    35   ar
   131    34    36   ar
   132    62    61    1
   133    35    37   ar
   134   143   144   ar
   135   143   142    1
   136    36    38   ar
   137    51    48    1
   138   139   138    1
   139   139   142    1
   140   139   140    1
   141   141   140    2
   142    46    45    1
   143    37    39   ar
   144    61    58    1
   145    38    39   ar
   146    48    47    1
   147    48    49    1
   148    59    60    2
   149    59    58    1
   150    39    40    1
   151    58    57    1
   152    45    42    1
   153    49    50    2
   154    41    42    1
   155    42    43    1
   156    44    43    2
