@<TRIPOS>MOLECULE
tmp/2q95A00.pdb
 160 156 0 0 0
SMALL
GASTEIGER

@<TRIPOS>ATOM
      1  N         -5.4420    6.4430   10.0800 N.3    58  CYS58      -0.1235
      2  CA        -6.1520    5.2470   10.5190 C.3    58  CYS58       0.1677
      3  C         -7.6320    5.4970   10.7860 C.2    58  CYS58       0.2270
      4  O         -8.4710    4.6450   10.5030 O.2    58  CYS58      -0.2867
      5  CB        -5.5130    4.6820   11.7890 C.3    58  CYS58       0.0956
      6  SG        -3.8570    4.0180   11.5500 S.3    58  CYS58      -0.0801
      7  N        -10.3960    4.6320    8.2110 N.3    61  TYR61      -0.1227
      8  CA        -9.8140    3.7850    7.1710 C.3    61  TYR61       0.1736
      9  C        -10.4230    2.3840    7.2530 C.2    61  TYR61       0.2595
     10  O        -10.1610    1.6330    8.1960 O.2    61  TYR61      -0.2718
     11  CB        -8.2930    3.7290    7.3650 C.3    61  TYR61       0.0548
     12  CG        -7.5480    2.8960    6.3500 C.ar   61  TYR61      -0.0200
     13  CD1       -7.4900    3.2700    5.0030 C.ar   61  TYR61      -0.0009
     14  CD2       -6.8840    1.7360    6.7410 C.ar   61  TYR61      -0.0009
     15  CE1       -6.7850    2.4990    4.0730 C.ar   61  TYR61       0.0417
     16  CE2       -6.1820    0.9680    5.8310 C.ar   61  TYR61       0.0417
     17  CZ        -6.1360    1.3480    4.5000 C.ar   61  TYR61       0.1957
     18  OH        -5.4560    0.5480    3.6140 O.3    61  TYR61      -0.2866
     19  N        -11.2340    2.0410    6.2550 N.am   62  HIS62      -0.1975
     20  CA       -11.9280    0.7570    6.2240 C.3    62  HIS62       0.1656
     21  C        -12.8010    0.6440    7.4660 C.2    62  HIS62       0.2291
     22  O        -13.1460   -0.4520    7.9080 O.2    62  HIS62      -0.2864
     23  CB       -10.9330   -0.4030    6.1550 C.3    62  HIS62       0.0771
     24  CG       -10.2340   -0.5090    4.8370 C.ar   62  HIS62       0.0820
     25  ND1      -10.8810   -0.8890    3.6820 N.ar   62  HIS62      -0.2267
     26  CD2       -8.9560   -0.2430    4.4810 C.ar   62  HIS62       0.1154
     27  CE1      -10.0320   -0.8510    2.6700 C.ar   62  HIS62       0.1986
     28  NE2       -8.8570   -0.4610    3.1280 N.ar   62  HIS62      -0.2212
     29  N        -11.9530    1.7410   10.5280 N.3    64  TYR64      -0.1241
     30  CA       -11.2130    1.6370   11.7840 C.3    64  TYR64       0.1605
     31  C        -11.6950    2.7740   12.6900 C.2    64  TYR64       0.2264
     32  O        -11.6630    3.9450   12.3040 O.2    64  TYR64      -0.2867
     33  CB        -9.7070    1.7310   11.5360 C.3    64  TYR64       0.0534
     34  CG        -8.9100    1.4110   12.7740 C.ar   64  TYR64      -0.0201
     35  CD1       -8.8630    0.1120   13.2760 C.ar   64  TYR64      -0.0009
     36  CD2       -8.2630    2.4190   13.4850 C.ar   64  TYR64      -0.0009
     37  CE1       -8.1930   -0.1730   14.4640 C.ar   64  TYR64       0.0417
     38  CE2       -7.5920    2.1480   14.6720 C.ar   64  TYR64       0.0417
     39  CZ        -7.5640    0.8550   15.1570 C.ar   64  TYR64       0.1957
     40  OH        -6.9310    0.5960   16.3520 O.3    64  TYR64      -0.2866
     41  N         -3.3310    2.3390   16.4150 N.3    69  CYS69      -0.1235
     42  CA        -3.5440    0.9350   16.7280 C.3    69  CYS69       0.1677
     43  C         -2.6820    0.5990   17.9390 C.2    69  CYS69       0.2270
     44  O         -1.5060    0.9580   17.9880 O.2    69  CYS69      -0.2867
     45  CB        -3.1300    0.0410   15.5570 C.3    69  CYS69       0.0956
     46  SG        -4.1520    0.2140   14.0890 S.3    69  CYS69      -0.0801
     47  N         -3.5700   -4.3530   14.7780 N.3    78  HIS78      -0.1241
     48  CA        -4.8990   -3.7630   14.6980 C.3    78  HIS78       0.1621
     49  C         -5.6800   -3.7780   16.0050 C.2    78  HIS78       0.2264
     50  O         -6.9110   -3.7030   16.0030 O.2    78  HIS78      -0.2867
     51  CB        -5.7010   -4.4480   13.5880 C.3    78  HIS78       0.0745
     52  CG        -5.0540   -4.3600   12.2390 C.ar   78  HIS78       0.0817
     53  ND1       -5.6050   -4.9250   11.1090 N.ar   78  HIS78      -0.2268
     54  CD2       -3.8980   -3.7750   11.8410 C.ar   78  HIS78       0.1154
     55  CE1       -4.8170   -4.6920   10.0740 C.ar   78  HIS78       0.1986
     56  NE2       -3.7750   -3.9960   10.4910 N.ar   78  HIS78      -0.2212
     57  N          0.9900    1.8930   17.0270 N.3    96  ASP96      -0.1239
     58  CA         1.2510    2.1620   15.6170 C.3    96  ASP96       0.1674
     59  C          0.5870    3.4570   15.1970 C.2    96  ASP96       0.2266
     60  O         -0.6140    3.6490   15.3960 O.2    96  ASP96      -0.2867
     61  CB         0.7330    1.0120   14.7590 C.3    96  ASP96       0.1410
     62  CG         1.2550    1.0760   13.3390 C.2    96  ASP96       0.3668
     63  OD1        1.9220    2.0800   12.9970 O.co2  96  ASP96      -0.2456
     64  OD2        0.9990    0.1300   12.5730 O.co2  96  ASP96      -0.2456
     65  N          0.1470    6.6250   12.1100 N.3    98  THR98      -0.1218
     66  CA         0.2710    7.0810   10.7340 C.3    98  THR98       0.1862
     67  C         -0.4400    8.4210   10.6870 C.2    98  THR98       0.2287
     68  O         -1.6350    8.5170   10.9750 O.2    98  THR98      -0.2866
     69  CB        -0.3690    6.1310    9.6920 C.3    98  THR98       0.1770
     70  OG1        0.3160    4.8730    9.6950 O.3    98  THR98      -0.2211
     71  CG2       -0.2340    6.7380    8.2840 C.3    98  THR98       0.0375
     72  N          4.5050    6.8360    8.6310 N.3   107  ASP107     -0.1239
     73  CA         4.0300    5.5960    9.2490 C.3   107  ASP107      0.1674
     74  C          5.1110    4.9540   10.1250 C.2   107  ASP107      0.2266
     75  O          6.1930    4.6160    9.6400 O.2   107  ASP107     -0.2867
     76  CB         3.6190    4.6430    8.1150 C.3   107  ASP107      0.1410
     77  CG         2.7960    3.4610    8.5860 C.2   107  ASP107      0.3668
     78  OD1        2.5860    3.3050    9.8060 O.co2 107  ASP107     -0.2456
     79  OD2        2.3660    2.6860    7.7040 O.co2 107  ASP107     -0.2456
     80  N          0.7020   -9.9440    6.6930 N.3   167  TYR167     -0.1227
     81  CA         0.9260   -8.5090    6.5470 C.3   167  TYR167      0.1736
     82  C          2.3320   -8.1830    6.0600 C.2   167  TYR167      0.2595
     83  O          3.2590   -8.9750    6.2390 O.2   167  TYR167     -0.2718
     84  CB         0.6370   -7.8030    7.8730 C.3   167  TYR167      0.0548
     85  CG        -0.7820   -8.0240    8.3470 C.ar  167  TYR167     -0.0200
     86  CD1       -1.0940   -9.0610    9.2260 C.ar  167  TYR167     -0.0009
     87  CD2       -1.8240   -7.2290    7.8700 C.ar  167  TYR167     -0.0009
     88  CE1       -2.4160   -9.3020    9.6180 C.ar  167  TYR167      0.0417
     89  CE2       -3.1440   -7.4620    8.2530 C.ar  167  TYR167      0.0417
     90  CZ        -3.4340   -8.4990    9.1250 C.ar  167  TYR167      0.1957
     91  OH        -4.7430   -8.7390    9.4840 O.3   167  TYR167     -0.2866
     92  N          2.4840   -7.0200    5.4340 N.am  168  CYS168     -0.1970
     93  CA         3.7780   -6.6050    4.8980 C.3   168  CYS168      0.1712
     94  C          3.9820   -5.0980    4.9090 C.2   168  CYS168      0.2296
     95  O          3.0550   -4.3270    5.1770 O.2   168  CYS168     -0.2864
     96  CB         3.9120   -7.0900    3.4550 C.3   168  CYS168      0.0983
     97  SG         2.6120   -6.4460    2.3550 S.3   168  CYS168     -0.0798
     98  N          5.0460   -1.5040    2.9500 N.3   170  HIS170     -0.1241
     99  CA         4.4200   -0.9640    1.7500 C.3   170  HIS170      0.1621
    100  C          4.9590    0.3840    1.3350 C.2   170  HIS170      0.2264
    101  O          5.4770    1.1380    2.1590 O.2   170  HIS170     -0.2867
    102  CB         2.9330   -0.7940    2.0300 C.3   170  HIS170      0.0745
    103  CG         2.6640   -0.0040    3.2720 C.ar  170  HIS170      0.0817
    104  ND1        2.5540    1.3710    3.2720 N.ar  170  HIS170     -0.2268
    105  CD2        2.5970   -0.3850    4.5700 C.ar  170  HIS170      0.1154
    106  CE1        2.4360    1.8020    4.5160 C.ar  170  HIS170      0.1986
    107  NE2        2.4620    0.7570    5.3220 N.ar  170  HIS170     -0.2212
    108  N         -1.6860    6.0660    1.8570 N.3   176  PHE176     -0.1227
    109  CA        -1.2790    5.3080    3.0370 C.3   176  PHE176      0.1736
    110  C         -0.4840    4.0820    2.5740 C.2   176  PHE176      0.2595
    111  O          0.6630    3.8730    2.9810 O.2   176  PHE176     -0.2718
    112  CB        -2.5420    4.8750    3.7970 C.3   176  PHE176      0.0547
    113  CG        -2.2990    4.3590    5.1920 C.ar  176  PHE176     -0.0202
    114  CD1       -1.0540    3.8760    5.5910 C.ar  176  PHE176     -0.0042
    115  CD2       -3.3600    4.2860    6.0920 C.ar  176  PHE176     -0.0042
    116  CE1       -0.8750    3.3210    6.8610 C.ar  176  PHE176     -0.0003
    117  CE2       -3.1900    3.7340    7.3570 C.ar  176  PHE176     -0.0003
    118  CZ        -1.9470    3.2490    7.7440 C.ar  176  PHE176     -0.0000
    119  N         -1.1050    3.2790    1.7170 N.am  177  HIS177     -0.1975
    120  CA        -0.4670    2.0820    1.1800 C.3   177  HIS177      0.1656
    121  C         -0.3550    2.1750   -0.3370 C.2   177  HIS177      0.2291
    122  O         -1.3580    2.3070   -1.0380 O.2   177  HIS177     -0.2864
    123  CB        -1.2660    0.8350    1.5550 C.3   177  HIS177      0.0771
    124  CG        -1.4810    0.6790    3.0270 C.ar  177  HIS177      0.0820
    125  ND1       -2.5480    1.2490    3.6870 N.ar  177  HIS177     -0.2267
    126  CD2       -0.7440    0.0520    3.9730 C.ar  177  HIS177      0.1154
    127  CE1       -2.4590    0.9800    4.9760 C.ar  177  HIS177      0.1986
    128  NE2       -1.3720    0.2560    5.1770 N.ar  177  HIS177     -0.2212
    129  N          8.1360   -3.1970    8.3610 N.3   203  GLU203     -0.1245
    130  CA         7.4210   -3.3690    9.6160 C.3   203  GLU203      0.1567
    131  C          7.1320   -4.8260    9.9580 C.2   203  GLU203      0.2260
    132  O          5.9820   -5.2410   10.0330 O.2   203  GLU203     -0.2867
    133  CB         6.1100   -2.5900    9.5280 C.3   203  GLU203      0.0388
    134  CG         5.3290   -2.8530    8.2370 C.3   203  GLU203      0.1160
    135  CD         4.0560   -2.0290    8.1460 C.2   203  GLU203      0.3649
    136  OE1        3.2420   -2.1040    9.0880 O.co2 203  GLU203     -0.2457
    137  OE2        3.8660   -1.3020    7.1430 O.co2 203  GLU203     -0.2457
    138  N        -11.4900   -6.9140   13.9030 N.3   220  TRP220     -0.1241
    139  CA       -10.2460   -6.1500   13.8270 C.3   220  TRP220      0.1605
    140  C         -9.0440   -6.7790   14.5200 C.2   220  TRP220      0.2264
    141  O         -7.9640   -6.9130   13.9400 O.2   220  TRP220     -0.2867
    142  CB       -10.4610   -4.7610   14.4310 C.3   220  TRP220      0.0550
    143  CG       -11.2370   -3.8390   13.5590 C.ar  220  TRP220      0.0003
    144  CD1      -12.5140   -3.4000   13.7520 C.ar  220  TRP220      0.0946
    145  CD2      -10.7800   -3.2290   12.3510 C.ar  220  TRP220      0.0152
    146  NE1      -12.8800   -2.5480   12.7370 N.ar  220  TRP220     -0.2442
    147  CE2      -11.8320   -2.4270   11.8620 C.ar  220  TRP220      0.0810
    148  CE3       -9.5780   -3.2840   11.6320 C.ar  220  TRP220      0.0012
    149  CZ2      -11.7180   -1.6810   10.6820 C.ar  220  TRP220      0.0191
    150  CZ3       -9.4650   -2.5420   10.4600 C.ar  220  TRP220      0.0001
    151  CH2      -10.5300   -1.7510    9.9980 C.ar  220  TRP220      0.0015
    152  N          8.1760   -0.5170   13.1850 N.3   234  GLU234     -0.1245
    153  CA         8.0200   -0.0190   11.8340 C.3   234  GLU234      0.1567
    154  C          8.6670    1.3360   11.6430 C.2   234  GLU234      0.2260
    155  O          8.6420    2.1780   12.5370 O.2   234  GLU234     -0.2867
    156  CB         6.5290    0.0760   11.4880 C.3   234  GLU234      0.0388
    157  CG         6.2170    0.9430   10.2760 C.3   234  GLU234      0.1160
    158  CD         4.7650    0.8520    9.8710 C.2   234  GLU234      0.3649
    159  OE1        3.9110    0.7510   10.7720 O.co2 234  GLU234     -0.2457
    160  OE2        4.4760    0.8890    8.6600 O.co2 234  GLU234     -0.2457
@<TRIPOS>BOND
     1   122   121    2
     2   121   120    1
     3   120   123    1
     4   120   119    1
     5   100    99    1
     6   100   101    2
     7   123   124    1
     8   119   110   am
     9    99   102    1
    10    99    98    1
    11   108   109    1
    12   102   103    1
    13    97    96    1
    14   110   111    2
    15   110   109    1
    16    27    28   ar
    17    27    25   ar
    18   124   125   ar
    19   124   126   ar
    20   109   112    1
    21    28    26   ar
    22   103   104   ar
    23   103   105   ar
    24   104   106   ar
    25    96    93    1
    26    18    17    1
    27    25    24   ar
    28   125   127   ar
    29   112   113    1
    30   126   128   ar
    31    15    17   ar
    32    15    13   ar
    33    26    24   ar
    34    17    16   ar
    35   106   107   ar
    36   105   107   ar
    37    24    23    1
    38    93    94    1
    39    93    92    1
    40    94    95    2
    41   127   128   ar
    42    13    12   ar
    43   113   114   ar
    44   113   115   ar
    45    92    82   am
    46   114   116   ar
    47    16    14   ar
    48    82    83    2
    49    82    81    1
    50   115   117   ar
    51    23    20    1
    52    20    19    1
    53    20    21    1
    54    19     9   am
    55    12    14   ar
    56    12    11    1
    57    81    80    1
    58    81    84    1
    59   116   118   ar
    60   137   135   ar
    61     8     9    1
    62     8    11    1
    63     8     7    1
    64     9    10    2
    65   117   118   ar
    66    21    22    2
    67    79    77   ar
    68    87    89   ar
    69    87    85   ar
    70    84    85    1
    71    76    77    1
    72    76    73    1
    73   135   134    1
    74   135   136   ar
    75   134   133    1
    76    89    90   ar
    77    71    69    1
    78    85    86   ar
    79   129   130    1
    80    77    78   ar
    81    72    73    1
    82   160   158   ar
    83    90    91    1
    84    90    88   ar
    85    86    88   ar
    86    73    74    1
    87   133   130    1
    88   130   131    1
    89    75    74    2
    90    69    70    1
    91    69    66    1
    92   158   157    1
    93   158   159   ar
    94   131   132    2
    95   151   150   ar
    96   151   149   ar
    97    55    56   ar
    98    55    53   ar
    99     1     2    1
   100   157   156    1
   101   150   148   ar
   102    56    54   ar
   103     4     3    2
   104     2     3    1
   105     2     5    1
   106    29    30    1
   107   149   147   ar
   108    67    66    1
   109    67    68    2
   110    66    65    1
   111    53    52   ar
   112   156   153    1
   113    33    30    1
   114    33    34    1
   115     6     5    1
   116   148   145   ar
   117   154   153    1
   118   154   155    2
   119    30    31    1
   120   153   152    1
   121    54    52   ar
   122   147   145   ar
   123   147   146   ar
   124    52    51    1
   125    32    31    2
   126   145   143   ar
   127    64    62   ar
   128   146   144   ar
   129    34    35   ar
   130    34    36   ar
   131    63    62   ar
   132    35    37   ar
   133    62    61    1
   134    36    38   ar
   135   143   144   ar
   136   143   142    1
   137    51    48    1
   138   139   138    1
   139   139   142    1
   140   139   140    1
   141   141   140    2
   142    46    45    1
   143    37    39   ar
   144    38    39   ar
   145    48    47    1
   146    48    49    1
   147    61    58    1
   148    39    40    1
   149    59    60    2
   150    59    58    1
   151    45    42    1
   152    58    57    1
   153    50    49    2
   154    41    42    1
   155    42    43    1
   156    43    44    2
