@<TRIPOS>MOLECULE
tmp/2q96A00.pdb
 138 132 0 0 0
SMALL
GASTEIGER

@<TRIPOS>ATOM
      1  N         -5.4750    6.5000   10.2740 N.3    58  CYS58      -0.1235
      2  CA        -6.1870    5.3160   10.7530 C.3    58  CYS58       0.1677
      3  C         -7.6750    5.5610   10.9680 C.2    58  CYS58       0.2270
      4  O         -8.5010    4.6830   10.7240 O.2    58  CYS58      -0.2867
      5  CB        -5.5850    4.8290   12.0710 C.3    58  CYS58       0.0956
      6  SG        -3.8260    4.4880   12.0040 S.3    58  CYS58      -0.0801
      7  N        -10.3990    4.5900    8.4120 N.3    61  TYR61      -0.1241
      8  CA        -9.8080    3.6850    7.4270 C.3    61  TYR61       0.1605
      9  C        -10.5790    2.3660    7.4150 C.2    61  TYR61       0.2264
     10  O        -10.4710    1.5620    8.3420 O.2    61  TYR61      -0.2867
     11  CB        -8.3380    3.4210    7.7690 C.3    61  TYR61       0.0534
     12  CG        -7.6050    2.5700    6.7550 C.ar   61  TYR61      -0.0201
     13  CD1       -7.2390    3.0880    5.5130 C.ar   61  TYR61      -0.0009
     14  CD2       -7.2820    1.2430    7.0390 C.ar   61  TYR61      -0.0009
     15  CE1       -6.5640    2.3040    4.5770 C.ar   61  TYR61       0.0417
     16  CE2       -6.6110    0.4530    6.1120 C.ar   61  TYR61       0.0417
     17  CZ        -6.2550    0.9880    4.8850 C.ar   61  TYR61       0.1957
     18  OH        -5.5930    0.1970    3.9730 O.3    61  TYR61      -0.2866
     19  N        -12.4190    1.8360   10.5370 N.3    64  TYR64      -0.1241
     20  CA       -11.7160    1.7830   11.8170 C.3    64  TYR64       0.1605
     21  C        -12.1390    2.9920   12.6490 C.2    64  TYR64       0.2264
     22  O        -12.0780    4.1300   12.1820 O.2    64  TYR64      -0.2867
     23  CB       -10.2060    1.7910   11.5870 C.3    64  TYR64       0.0534
     24  CG        -9.3950    1.5150   12.8320 C.ar   64  TYR64      -0.0201
     25  CD1       -9.4750    0.2840   13.4850 C.ar   64  TYR64      -0.0009
     26  CD2       -8.5420    2.4870   13.3570 C.ar   64  TYR64      -0.0009
     27  CE1       -8.7180    0.0260   14.6340 C.ar   64  TYR64       0.0417
     28  CE2       -7.7880    2.2430   14.4990 C.ar   64  TYR64       0.0417
     29  CZ        -7.8780    1.0140   15.1310 C.ar   64  TYR64       0.1957
     30  OH        -7.1300    0.7800   16.2610 O.3    64  TYR64      -0.2866
     31  N         -3.3000    2.2770   16.3800 N.3    69  CYS69      -0.1235
     32  CA        -3.5020    0.8650   16.6640 C.3    69  CYS69       0.1677
     33  C         -2.6060    0.5340   17.8400 C.2    69  CYS69       0.2270
     34  O         -1.4230    0.8720   17.8430 O.2    69  CYS69      -0.2867
     35  CB        -3.1210   -0.0030   15.4680 C.3    69  CYS69       0.0956
     36  SG        -4.2760    0.1150   14.0840 S.3    69  CYS69      -0.0801
     37  N         -3.1970   -4.3460   14.7110 N.3    78  HIS78      -0.1241
     38  CA        -4.5270   -3.7710   14.6000 C.3    78  HIS78       0.1621
     39  C         -5.3690   -3.8070   15.8730 C.2    78  HIS78       0.2264
     40  O         -6.5970   -3.7990   15.8110 O.2    78  HIS78      -0.2867
     41  CB        -5.2540   -4.4540   13.4360 C.3    78  HIS78       0.0745
     42  CG        -4.4810   -4.4240   12.1500 C.ar   78  HIS78       0.0817
     43  ND1       -4.8520   -5.1500   11.0410 N.ar   78  HIS78      -0.2268
     44  CD2       -3.3550   -3.7550   11.8020 C.ar   78  HIS78       0.1154
     45  CE1       -3.9880   -4.9340   10.0650 C.ar   78  HIS78       0.1986
     46  NE2       -3.0690   -4.0900   10.5010 N.ar   78  HIS78      -0.2212
     47  N          1.0730    1.9430   16.9890 N.3    96  ASP96      -0.1239
     48  CA         1.3620    2.1990   15.5880 C.3    96  ASP96       0.1674
     49  C          0.6610    3.4660   15.1480 C.2    96  ASP96       0.2266
     50  O         -0.5640    3.5850   15.2480 O.2    96  ASP96      -0.2867
     51  CB         0.8980    1.0150   14.7480 C.3    96  ASP96       0.1410
     52  CG         1.4240    1.0640   13.3370 C.2    96  ASP96       0.3668
     53  OD1        2.0280    2.0890   12.9550 O.co2  96  ASP96      -0.2456
     54  OD2        1.2280    0.0730   12.6080 O.co2  96  ASP96      -0.2456
     55  N          0.2000    6.7010   12.1550 N.3    98  THR98      -0.1218
     56  CA         0.3000    7.1420   10.7760 C.3    98  THR98       0.1862
     57  C         -0.4320    8.4680   10.6890 C.2    98  THR98       0.2287
     58  O         -1.6350    8.5460   10.9440 O.2    98  THR98      -0.2866
     59  CB        -0.3120    6.1470    9.7800 C.3    98  THR98       0.1770
     60  OG1        0.4050    4.9100    9.8500 O.3    98  THR98      -0.2211
     61  CG2       -0.1990    6.6930    8.3550 C.3    98  THR98       0.0375
     62  N          4.5960    6.9630    8.6120 N.3   107  ASP107     -0.1239
     63  CA         4.1420    5.7200    9.2460 C.3   107  ASP107      0.1674
     64  C          5.2260    5.0910   10.1210 C.2   107  ASP107      0.2266
     65  O          6.3220    4.8090    9.6500 O.2   107  ASP107     -0.2867
     66  CB         3.7200    4.7560    8.1270 C.3   107  ASP107      0.1410
     67  CG         2.9380    3.5600    8.6260 C.2   107  ASP107      0.3668
     68  OD1        2.7370    3.4260    9.8480 O.co2 107  ASP107     -0.2456
     69  OD2        2.5160    2.7490    7.7720 O.co2 107  ASP107     -0.2456
     70  N          2.7510   -6.9140    5.4730 N.3   168  CYS168     -0.1235
     71  CA         4.0210   -6.4640    4.9200 C.3   168  CYS168      0.1677
     72  C          4.2280   -4.9580    4.9330 C.2   168  CYS168      0.2270
     73  O          3.3110   -4.1840    5.2290 O.2   168  CYS168     -0.2867
     74  CB         4.1290   -6.9390    3.4740 C.3   168  CYS168      0.0956
     75  SG         2.7730   -6.3200    2.4340 S.3   168  CYS168     -0.0801
     76  N          5.3060   -1.3990    2.9050 N.3   170  HIS170     -0.1241
     77  CA         4.6460   -0.8860    1.7100 C.3   170  HIS170      0.1621
     78  C          5.1540    0.4760    1.2780 C.2   170  HIS170      0.2264
     79  O          5.7220    1.2230    2.0720 O.2   170  HIS170     -0.2867
     80  CB         3.1560   -0.7660    2.0200 C.3   170  HIS170      0.0745
     81  CG         2.8830    0.0060    3.2750 C.ar  170  HIS170      0.0817
     82  ND1        2.7370    1.3770    3.2900 N.ar  170  HIS170     -0.2268
     83  CD2        2.8510   -0.3890    4.5700 C.ar  170  HIS170      0.1154
     84  CE1        2.6320    1.7930    4.5400 C.ar  170  HIS170      0.1986
     85  NE2        2.7000    0.7420    5.3360 N.ar  170  HIS170     -0.2212
     86  N         -1.6290    6.0420    1.8380 N.3   176  PHE176     -0.1227
     87  CA        -1.2260    5.3180    3.0490 C.3   176  PHE176      0.1736
     88  C         -0.3940    4.1080    2.6170 C.2   176  PHE176      0.2595
     89  O          0.7630    3.9540    3.0210 O.2   176  PHE176     -0.2718
     90  CB        -2.4910    4.8630    3.7940 C.3   176  PHE176      0.0547
     91  CG        -2.2590    4.3510    5.1990 C.ar  176  PHE176     -0.0202
     92  CD1       -0.9920    3.9790    5.6560 C.ar  176  PHE176     -0.0042
     93  CD2       -3.3440    4.1970    6.0550 C.ar  176  PHE176     -0.0042
     94  CE1       -0.8220    3.4600    6.9440 C.ar  176  PHE176     -0.0003
     95  CE2       -3.1860    3.6810    7.3390 C.ar  176  PHE176     -0.0003
     96  CZ        -1.9240    3.3110    7.7860 C.ar  176  PHE176     -0.0000
     97  N         -0.9900    3.2540    1.7910 N.am  177  HIS177     -0.1975
     98  CA        -0.3050    2.0710    1.2810 C.3   177  HIS177      0.1656
     99  C         -0.2170    2.1460   -0.2360 C.2   177  HIS177      0.2291
    100  O         -1.2350    2.2280   -0.9200 O.2   177  HIS177     -0.2864
    101  CB        -1.0520    0.7930    1.6750 C.3   177  HIS177      0.0771
    102  CG        -1.2810    0.6560    3.1470 C.ar  177  HIS177      0.0820
    103  ND1       -2.3640    1.2190    3.7880 N.ar  177  HIS177     -0.2267
    104  CD2       -0.5470    0.0500    4.1100 C.ar  177  HIS177      0.1154
    105  CE1       -2.2870    0.9670    5.0820 C.ar  177  HIS177      0.1986
    106  NE2       -1.1930    0.2600    5.3040 N.ar  177  HIS177     -0.2212
    107  N          8.4350   -3.0870    8.3580 N.3   203  GLU203     -0.1245
    108  CA         7.7270   -3.2600    9.6230 C.3   203  GLU203      0.1567
    109  C          7.4450   -4.7190    9.9540 C.2   203  GLU203      0.2260
    110  O          6.2930   -5.1470   10.0200 O.2   203  GLU203     -0.2867
    111  CB         6.4160   -2.4740    9.5560 C.3   203  GLU203      0.0388
    112  CG         5.5990   -2.7250    8.2800 C.3   203  GLU203      0.1160
    113  CD         4.3290   -1.8930    8.2250 C.2   203  GLU203      0.3649
    114  OE1        3.5420   -1.9500    9.1930 O.co2 203  GLU203     -0.2457
    115  OE2        4.1180   -1.1820    7.2190 O.co2 203  GLU203     -0.2457
    116  N        -11.1460   -6.5820   13.7120 N.3   220  TRP220     -0.1241
    117  CA        -9.8910   -5.8350   13.6210 C.3   220  TRP220      0.1605
    118  C         -8.6890   -6.5250   14.2650 C.2   220  TRP220      0.2264
    119  O         -7.6420   -6.7000   13.6380 O.2   220  TRP220     -0.2867
    120  CB       -10.0450   -4.4580   14.2770 C.3   220  TRP220      0.0550
    121  CG       -11.1020   -3.5790   13.6780 C.ar  220  TRP220      0.0003
    122  CD1      -12.2230   -3.1060   14.3000 C.ar  220  TRP220      0.0946
    123  CD2      -11.1170   -3.0320   12.3550 C.ar  220  TRP220      0.0152
    124  NE1      -12.9340   -2.2950   13.4450 N.ar  220  TRP220     -0.2442
    125  CE2      -12.2760   -2.2330   12.2450 C.ar  220  TRP220      0.0810
    126  CE3      -10.2600   -3.1390   11.2520 C.ar  220  TRP220      0.0012
    127  CZ2      -12.6010   -1.5420   11.0730 C.ar  220  TRP220      0.0191
    128  CZ3      -10.5840   -2.4510   10.0840 C.ar  220  TRP220      0.0001
    129  CH2      -11.7460   -1.6630   10.0070 C.ar  220  TRP220      0.0015
    130  N          8.3800   -0.3280   13.1990 N.3   234  GLU234     -0.1245
    131  CA         8.2260    0.1720   11.8470 C.3   234  GLU234      0.1567
    132  C          8.8760    1.5310   11.6410 C.2   234  GLU234      0.2260
    133  O          8.8430    2.3840   12.5200 O.2   234  GLU234     -0.2867
    134  CB         6.7340    0.2770   11.5050 C.3   234  GLU234      0.0388
    135  CG         6.4420    1.0440   10.2220 C.3   234  GLU234      0.1160
    136  CD         4.9680    1.0640    9.8740 C.2   234  GLU234      0.3649
    137  OE1        4.1320    1.0690   10.8010 O.co2 234  GLU234     -0.2457
    138  OE2        4.6450    1.0970    8.6690 O.co2 234  GLU234     -0.2457
@<TRIPOS>BOND
     1   100    99    2
     2    99    98    1
     3    78    77    1
     4    78    79    2
     5    98   101    1
     6    98    97    1
     7   101   102    1
     8    77    80    1
     9    77    76    1
    10    97    88   am
    11    86    87    1
    12    80    81    1
    13    75    74    1
    14    88    89    2
    15    88    87    1
    16    87    90    1
    17   102   103   ar
    18   102   104   ar
    19    81    82   ar
    20    81    83   ar
    21    82    84   ar
    22    74    71    1
    23   103   105   ar
    24    90    91    1
    25    18    17    1
    26   104   106   ar
    27    84    85   ar
    28    83    85   ar
    29    15    17   ar
    30    15    13   ar
    31    17    16   ar
    32    71    72    1
    33    71    70    1
    34    72    73    2
    35   105   106   ar
    36    91    92   ar
    37    91    93   ar
    38    13    12   ar
    39    92    94   ar
    40    93    95   ar
    41    16    14   ar
    42    12    14   ar
    43    12    11    1
    44    94    96   ar
    45   115   113   ar
    46    95    96   ar
    47     9     8    1
    48     9    10    2
    49     8    11    1
    50     8     7    1
    51    69    67   ar
    52    66    67    1
    53    66    63    1
    54   113   112    1
    55   113   114   ar
    56   112   111    1
    57    61    59    1
    58   107   108    1
    59    62    63    1
    60    67    68   ar
    61   138   136   ar
    62    63    64    1
    63   111   108    1
    64   108   109    1
    65    65    64    2
    66    59    60    1
    67    59    56    1
    68   136   135    1
    69   136   137   ar
    70   109   110    2
    71   129   128   ar
    72   129   127   ar
    73    45    46   ar
    74    45    43   ar
    75   128   126   ar
    76   135   134    1
    77     1     2    1
    78    46    44   ar
    79    19    20    1
    80    57    56    1
    81    57    58    2
    82     4     3    2
    83     2     3    1
    84     2     5    1
    85    56    55    1
    86    43    42   ar
    87   127   125   ar
    88   126   123   ar
    89   134   131    1
    90    23    20    1
    91    23    24    1
    92   132   131    1
    93   132   133    2
    94    44    42   ar
    95    20    21    1
    96   131   130    1
    97     6     5    1
    98    42    41    1
    99    22    21    2
   100   125   123   ar
   101   125   124   ar
   102   123   121   ar
   103    54    52   ar
   104    24    26   ar
   105    24    25   ar
   106    53    52   ar
   107    52    51    1
   108    26    28   ar
   109    41    38    1
   110   124   122   ar
   111    25    27   ar
   112   117   116    1
   113   117   118    1
   114   117   120    1
   115   119   118    2
   116   121   120    1
   117   121   122   ar
   118    36    35    1
   119    28    29   ar
   120    38    37    1
   121    38    39    1
   122    27    29   ar
   123    51    48    1
   124    29    30    1
   125    49    50    2
   126    49    48    1
   127    35    32    1
   128    48    47    1
   129    40    39    2
   130    31    32    1
   131    32    33    1
   132    33    34    2
