@<TRIPOS>MOLECULE
tmp/2q9cA00.pdb
 170 159 0 0 0
SMALL
GASTEIGER

@<TRIPOS>ATOM
      1  N         55.1990   61.8600   61.3940 N.3   110  VAL110     -0.1231
      2  CA        54.0050   61.0570   61.3150 C.3   110  VAL110      0.1692
      3  C         53.0250   61.5580   60.2720 C.2   110  VAL110      0.2592
      4  O         53.0260   62.7120   59.9110 O.2   110  VAL110     -0.2718
      5  CB        53.2860   60.9410   62.7120 C.3   110  VAL110      0.0266
      6  CG1       54.2810   60.6290   63.7410 C.3   110  VAL110      0.0020
      7  CG2       52.6090   62.2240   63.0710 C.3   110  VAL110      0.0020
      8  N         52.2260   60.6480   59.7740 N.am  111  ASN111     -0.1960
      9  CA        51.1930   60.9110   58.7960 C.3   111  ASN111      0.1819
     10  C         50.3160   62.0590   59.2040 C.2   111  ASN111      0.2622
     11  O         49.8860   62.1430   60.3400 O.2   111  ASN111     -0.2715
     12  CB        50.3120   59.6480   58.6290 C.3   111  ASN111      0.1195
     13  CG        49.5060   59.6590   57.3290 C.2   111  ASN111      0.2630
     14  OD1       48.1830   59.7870   57.4600 O.2   111  ASN111     -0.2716
     15  ND2       50.0550   59.5300   56.2410 N.am  111  ASN111     -0.0877
     16  N         50.1110   62.9780   58.2770 N.am  112  GLY112     -0.1940
     17  CA        49.2190   64.0820   58.4710 C.3   112  GLY112      0.2014
     18  C         49.8260   65.3660   58.9860 C.2   112  GLY112      0.2639
     19  O         49.1150   66.3680   58.9610 O.2   112  GLY112     -0.2714
     20  N         51.0800   65.3660   59.4190 N.am  113  VAL113     -0.1963
     21  CA        51.6450   66.5770   60.0210 C.3   113  VAL113      0.1727
     22  C         51.8380   67.7140   59.0690 C.2   113  VAL113      0.2617
     23  O         52.0980   68.8400   59.5130 O.2   113  VAL113     -0.2715
     24  CB        53.0640   66.3910   60.6910 C.3   113  VAL113      0.0290
     25  CG1       52.9320   65.6180   61.9690 C.3   113  VAL113      0.0023
     26  CG2       54.0310   65.7250   59.7420 C.3   113  VAL113      0.0023
     27  N         51.7000   67.4220   57.7890 N.am  114  GLY114     -0.1940
     28  CA        51.9300   68.4030   56.7380 C.3   114  GLY114      0.2014
     29  C         53.2600   68.2760   56.0310 C.2   114  GLY114      0.2639
     30  O         53.8450   69.2670   55.6000 O.2   114  GLY114     -0.2714
     31  N         53.7990   67.0620   55.9320 N.am  115  LYS115     -0.1963
     32  CA        55.1120   66.8960   55.2270 C.3   115  LYS115      0.1728
     33  C         55.0130   67.2930   53.7830 C.2   115  LYS115      0.2617
     34  O         55.8270   68.0800   53.2960 O.2   115  LYS115     -0.2715
     35  CB        55.6890   65.4550   55.2920 C.3   115  LYS115      0.0311
     36  CG        55.7440   64.8750   56.7190 C.3   115  LYS115      0.0038
     37  CD        56.8610   63.9260   56.9670 C.3   115  LYS115      0.0206
     38  CE        56.8630   62.6430   56.0820 C.3   115  LYS115      0.1093
     39  NZ        56.0890   61.5020   56.6910 N.3   115  LYS115     -0.1314
     40  N         53.9450   66.8570   53.1230 N.am  116  THR116     -0.1937
     41  CA        53.7930   67.0770   51.7100 C.3   116  THR116      0.2028
     42  C         53.7280   68.5660   51.3920 C.2   116  THR116      0.2643
     43  O         54.4140   69.0560   50.4930 O.2   116  THR116     -0.2714
     44  CB        52.5440   66.3280   51.1900 C.3   116  THR116      0.1808
     45  OG1       52.8850   64.9630   50.8940 O.3   116  THR116     -0.2208
     46  CG2       52.0510   66.8770   49.8600 C.3   116  THR116      0.0379
     47  N         52.8580   69.2630   52.0860 N.am  117  THR117     -0.1936
     48  CA        52.6780   70.7110   51.8980 C.3   117  THR117      0.2028
     49  C         54.0020   71.4270   52.2620 C.2   117  THR117      0.2642
     50  O         54.4220   72.3850   51.6370 O.2   117  THR117     -0.2714
     51  CB        51.5560   71.1250   52.8880 C.3   117  THR117      0.1808
     52  OG1       50.3130   71.0190   52.2150 O.3   117  THR117     -0.2208
     53  CG2       51.6840   72.6180   53.2830 C.3   117  THR117      0.0379
     54  N         54.6300   71.0000   53.3190 N.am  118  THR118     -0.1950
     55  CA        55.8810   71.6310   53.7320 C.3   118  THR118      0.1897
     56  C         56.9820   71.5200   52.6520 C.2   118  THR118      0.2313
     57  O         57.7050   72.4810   52.3940 O.2   118  THR118     -0.2863
     58  CB        56.4040   70.9490   55.0140 C.3   118  THR118      0.1794
     59  OG1       55.4900   71.1570   56.0930 O.3   118  THR118     -0.2208
     60  CG2       57.7750   71.5590   55.4930 C.3   118  THR118      0.0378
     61  N         56.4780   73.9730   49.7550 N.3   121  LYS121     -0.1245
     62  CA        56.8670   75.3420   50.1800 C.3   121  LYS121      0.1561
     63  C         58.3690   75.4100   50.2420 C.2   121  LYS121      0.2260
     64  O         58.9610   76.4270   49.9630 O.2   121  LYS121     -0.2867
     65  CB        56.2700   75.6910   51.5320 C.3   121  LYS121      0.0271
     66  CG        54.7570   75.6860   51.5310 C.3   121  LYS121      0.0035
     67  CD        54.1210   75.9970   52.9290 C.3   121  LYS121      0.0206
     68  CE        52.5030   76.0530   52.7670 C.3   121  LYS121      0.1093
     69  NZ        51.8510   76.2960   54.1690 N.3   121  LYS121     -0.1314
     70  N         56.4960   58.6730   49.9540 N.3   139  ASP139     -0.1239
     71  CA        55.2590   58.2620   50.6160 C.3   139  ASP139      0.1674
     72  C         54.2950   57.8220   49.5000 C.2   139  ASP139      0.2266
     73  O         53.2130   58.2980   49.4210 O.2   139  ASP139     -0.2867
     74  CB        54.7010   59.4400   51.4350 C.3   139  ASP139      0.1410
     75  CG        53.4460   59.0510   52.3230 C.2   139  ASP139      0.3668
     76  OD1       53.0030   57.9120   52.3120 O.co2 139  ASP139     -0.2456
     77  OD2       52.8040   59.8340   53.0210 O.co2 139  ASP139     -0.2456
     78  N         50.2560   56.2580   51.2280 N.3   142  ARG142     -0.1231
     79  CA        49.0140   57.0120   51.3950 C.3   142  ARG142      0.1694
     80  C         48.8700   58.2940   50.6100 C.2   142  ARG142      0.2591
     81  O         49.7510   59.1210   50.6420 O.2   142  ARG142     -0.2718
     82  CB        48.7850   57.2790   52.8700 C.3   142  ARG142      0.0321
     83  CG        48.1680   55.9730   53.4910 C.3   142  ARG142      0.0489
     84  CD        49.2370   54.9120   53.6030 C.3   142  ARG142      0.2205
     85  NE        50.4690   55.4790   54.1800 N.pl3 142  ARG142     -0.0865
     86  CZ        51.4270   54.7160   54.7230 C.cat 142  ARG142      0.5346
     87  NH1       51.2620   53.3800   54.7500 N.pl3 142  ARG142      0.1354
     88  NH2       52.5070   55.2830   55.2510 N.pl3 142  ARG142      0.1354
     89  N         47.7170   58.4260   49.9580 N.am  143  ALA143     -0.1980
     90  CA        47.2670   59.5570   49.1620 C.3   143  ALA143      0.1597
     91  C         45.8850   59.9960   49.7090 C.2   143  ALA143      0.2287
     92  O         45.6660   61.1310   50.1590 O.2   143  ALA143     -0.2864
     93  CB        47.0520   59.0960   47.7490 C.3   143  ALA143      0.0319
     94  N         46.3010   66.6310   48.3390 N.3   147  THR147     -0.1203
     95  CA        47.0890   66.9900   47.1670 C.3   147  THR147      0.1994
     96  C         48.4200   66.2890   47.2420 C.2   147  THR147      0.2617
     97  O         49.1920   66.5760   48.1580 O.2   147  THR147     -0.2717
     98  CB        47.3420   68.4910   47.1450 C.3   147  THR147      0.1784
     99  OG1       46.0950   69.1660   47.0400 O.3   147  THR147     -0.2211
    100  CG2       48.0680   68.9170   45.8820 C.3   147  THR147      0.0376
    101  N         48.6600   65.3810   46.2890 N.am  148  GLN148     -0.1979
    102  CA        49.9090   64.6290   46.2100 C.3   148  GLN148      0.1601
    103  C         51.1100   65.5460   45.9760 C.2   148  GLN148      0.2287
    104  O         50.9900   66.6010   45.3360 O.2   148  GLN148     -0.2864
    105  CB        49.8650   63.5930   45.0720 C.3   148  GLN148      0.0394
    106  CG        48.7280   62.5500   45.1630 C.3   148  GLN148      0.0908
    107  CD        49.1310   61.3530   45.9560 C.2   148  GLN148      0.2608
    108  OE1       49.3250   61.4610   47.1400 O.2   148  GLN148     -0.2717
    109  NE2       49.2760   60.1960   45.2950 N.am  148  GLN148     -0.0878
    110  N         60.3950   62.7580   50.5000 N.3   191  ASP191     -0.1239
    111  CA        59.2230   62.5540   51.3290 C.3   191  ASP191      0.1674
    112  C         59.1620   61.0980   51.7160 C.2   191  ASP191      0.2266
    113  O         59.7400   60.2720   51.0320 O.2   191  ASP191     -0.2867
    114  CB        57.9390   62.9410   50.5630 C.3   191  ASP191      0.1410
    115  CG        56.7330   63.1480   51.5270 C.2   191  ASP191      0.3668
    116  OD1       56.9380   63.0760   52.7340 O.co2 191  ASP191     -0.2456
    117  OD2       55.5880   63.3610   51.1360 O.co2 191  ASP191     -0.2456
    118  N         54.9280   73.0870   62.2490 N.3   255  THR255     -0.1203
    119  CA        53.8500   73.6580   61.4930 C.3   255  THR255      0.1994
    120  C         52.6730   73.9750   62.3870 C.2   255  THR255      0.2617
    121  O         52.6640   73.6380   63.5830 O.2   255  THR255     -0.2717
    122  CB        53.4250   72.6380   60.3920 C.3   255  THR255      0.1784
    123  OG1       52.8520   71.4560   61.0100 O.3   255  THR255     -0.2211
    124  CG2       54.7380   72.1210   59.6140 C.3   255  THR255      0.0376
    125  N         51.6860   74.6300   61.7670 N.am  256  LYS256     -0.1979
    126  CA        50.4180   74.9630   62.4070 C.3   256  LYS256      0.1596
    127  C         50.5270   75.7640   63.7010 C.2   256  LYS256      0.2287
    128  O         49.7560   75.5520   64.6310 O.2   256  LYS256     -0.2864
    129  CB        49.6320   73.6690   62.6700 C.3   256  LYS256      0.0298
    130  CG        49.4190   72.8420   61.3980 C.3   256  LYS256      0.0038
    131  CD        48.5320   71.6070   61.6500 C.3   256  LYS256      0.0206
    132  CE        48.8730   70.4860   60.6660 C.3   256  LYS256      0.1093
    133  NZ        48.2710   69.1580   61.0320 N.3   256  LYS256     -0.1314
    134  N         49.8430   78.8740   63.9040 N.3   258  ASP258     -0.1225
    135  CA        48.6370   79.6950   63.8640 C.3   258  ASP258      0.1805
    136  C         47.4110   78.9920   64.4310 C.2   258  ASP258      0.2598
    137  O         46.4330   79.6340   64.6970 O.2   258  ASP258     -0.2718
    138  CB        48.2870   80.0880   62.4170 C.3   258  ASP258      0.1424
    139  CG        48.1300   78.8780   61.5100 C.2   258  ASP258      0.3668
    140  OD1       49.1150   78.1330   61.2530 O.co2 258  ASP258     -0.2456
    141  OD2       47.0310   78.6200   60.9790 O.co2 258  ASP258     -0.2456
    142  N         47.4580   77.6740   64.5920 N.am  259  GLY259     -0.1957
    143  CA        46.2830   76.9710   65.0800 C.3   259  GLY259      0.1869
    144  C         46.2690   76.6380   66.5580 C.2   259  GLY259      0.2309
    145  O         45.3770   75.9470   66.9980 O.2   259  GLY259     -0.2863
    146  N         55.9360   76.9840   60.7240 N.3   281  GLY281     -0.1225
    147  CA        54.7720   77.2240   59.8620 C.3   281  GLY281      0.1811
    148  C         53.7360   78.1430   60.4960 C.2   281  GLY281      0.2280
    149  O         53.1830   77.8080   61.5510 O.2   281  GLY281     -0.2866
    150  N         50.8190   79.3120   58.8020 N.3   283  GLY283     -0.1210
    151  CA        49.5230   79.2690   58.1540 C.3   283  GLY283      0.1956
    152  C         49.5260   78.3560   56.9460 C.2   283  GLY283      0.2611
    153  O         50.5510   77.7040   56.6540 O.2   283  GLY283     -0.2717
    154  N         48.4120   78.2990   56.2200 N.am  284  GLU284     -0.1979
    155  CA        48.3670   77.4760   54.9930 C.3   284  GLU284      0.1602
    156  C         48.6990   78.2580   53.7010 C.2   284  GLU284      0.2287
    157  O         48.2490   77.8960   52.6070 O.2   284  GLU284     -0.2864
    158  CB        46.9960   76.7690   54.8350 C.3   284  GLU284      0.0415
    159  CG        46.8050   75.6350   55.8490 C.3   284  GLU284      0.1163
    160  CD        45.6790   74.7010   55.4380 C.2   284  GLU284      0.3649
    161  OE1       45.7990   74.1110   54.3200 O.co2 284  GLU284     -0.2457
    162  OE2       44.6840   74.5600   56.2320 O.co2 284  GLU284     -0.2457
    163  N         55.5000   79.4150   55.3590 N.3   289  LEU289     -0.1245
    164  CA        56.5820   78.5710   55.8730 C.3   289  LEU289      0.1561
    165  C         57.8290   79.4290   55.9420 C.2   289  LEU289      0.2260
    166  O         58.4650   79.6290   54.8750 O.2   289  LEU289     -0.2867
    167  CB        56.8400   77.3470   54.9800 C.3   289  LEU289      0.0270
    168  CG        57.9880   76.4360   55.5330 C.3   289  LEU289      0.0019
    169  CD1       57.6230   75.8440   56.8080 C.3   289  LEU289      0.0001
    170  CD2       58.4300   75.3770   54.5910 C.3   289  LEU289      0.0001
@<TRIPOS>BOND
     1   105   106    1
     2   105   102    1
     3   106   107    1
     4   109   107   am
     5   104   103    2
     6   100    98    1
     7   107   108    2
     8   103   102    1
     9   102   101    1
    10   101    96   am
    11    99    98    1
    12    98    95    1
    13    95    96    1
    14    95    94    1
    15    96    97    2
    16    93    90    1
    17    90    91    1
    18    90    89    1
    19    73    72    2
    20    72    71    1
    21    91    92    2
    22    61    62    1
    23    46    44    1
    24    70    71    1
    25    89    80   am
    26    64    63    2
    27    62    63    1
    28    62    65    1
    29    43    42    2
    30   110   111    1
    31   114   111    1
    32   114   115    1
    33    80    81    2
    34    80    79    1
    35    71    74    1
    36    45    44    1
    37   113   112    2
    38   117   115   ar
    39    44    41    1
    40    78    79    1
    41   111   112    1
    42    42    41    1
    43    42    47   am
    44    79    82    1
    45    74    75    1
    46   115   116   ar
    47    66    65    1
    48    66    67    1
    49    50    49    2
    50    41    40    1
    51    48    47    1
    52    48    49    1
    53    48    51    1
    54    52    51    1
    55    49    54   am
    56    76    75   ar
    57    75    77   ar
    58    57    56    2
    59   157   156    2
    60    56    55    1
    61    68    67    1
    62    68    69    1
    63    82    83    1
    64    51    53    1
    65    40    33   am
    66    34    33    2
    67    54    55    1
    68    83    84    1
    69    84    85    1
    70   156   155    1
    71    55    58    1
    72    33    32    1
    73    85    86    2
    74   161   160   ar
    75   170   168    1
    76    86    87    1
    77    86    88    1
    78   158   155    1
    79   158   159    1
    80   166   165    2
    81   167   168    1
    82   167   164    1
    83   155   154    1
    84    58    60    1
    85    58    59    1
    86    32    35    1
    87    32    31    1
    88    35    36    1
    89   163   164    1
    90   160   159    1
    91   160   162   ar
    92   168   169    1
    93    30    29    2
    94   164   165    1
    95    31    29   am
    96    29    28    1
    97    38    39    1
    98    38    37    1
    99   154   152   am
   100    15    13   am
   101   153   152    2
   102    36    37    1
   103    28    27    1
   104   152   151    1
   105    13    14    2
   106    13    12    1
   107    27    22   am
   108   151   150    1
   109    16    17    1
   110    16    10   am
   111    17    18    1
   112    12     9    1
   113     9    10    1
   114     9     8    1
   115    19    18    2
   116    18    20   am
   117    22    23    2
   118    22    21    1
   119    10    11    2
   120    20    21    1
   121   124   122    1
   122    26    24    1
   123     8     3   am
   124   147   148    1
   125   147   146    1
   126     4     3    2
   127    21    24    1
   128     3     2    1
   129   122   123    1
   130   122   119    1
   131   148   149    2
   132   132   133    1
   133   132   131    1
   134    24    25    1
   135   141   139   ar
   136   140   139   ar
   137     2     1    1
   138     2     5    1
   139   130   131    1
   140   130   129    1
   141   119   118    1
   142   119   120    1
   143   139   138    1
   144   125   120   am
   145   125   126    1
   146   120   121    2
   147   126   129    1
   148   126   127    1
   149   138   135    1
   150     5     7    1
   151     5     6    1
   152   127   128    2
   153   135   134    1
   154   135   136    1
   155   136   142   am
   156   136   137    2
   157   142   143    1
   158   143   144    1
   159   144   145    2
