@<TRIPOS>MOLECULE
tmp/2q9fA01.pdb
 215 209 0 0 0
SMALL
GASTEIGER

@<TRIPOS>ATOM
      1  N         18.2180   -2.6740   24.8290 N.3    22  PHE22      -0.1227
      2  CA        18.6580   -1.3070   24.4840 C.3    22  PHE22       0.1736
      3  C         17.6650   -0.2950   25.0960 C.2    22  PHE22       0.2595
      4  O         16.6770   -0.7130   25.6760 O.2    22  PHE22      -0.2718
      5  CB        18.7420   -1.1120   22.9820 C.3    22  PHE22       0.0547
      6  CG        19.6140   -2.1280   22.2740 C.ar   22  PHE22      -0.0202
      7  CD1       19.0510   -2.9650   21.2980 C.ar   22  PHE22      -0.0042
      8  CD2       20.9650   -2.2430   22.5760 C.ar   22  PHE22      -0.0042
      9  CE1       19.8330   -3.8890   20.6440 C.ar   22  PHE22      -0.0003
     10  CE2       21.7770   -3.1740   21.9220 C.ar   22  PHE22      -0.0003
     11  CZ        21.2010   -3.9950   20.9560 C.ar   22  PHE22      -0.0000
     12  N         17.9310    1.0100   24.9630 N.am   23  HIS23      -0.1975
     13  CA        17.2190    2.0290   25.7410 C.3    23  HIS23       0.1656
     14  C         15.8080    2.1500   25.1940 C.2    23  HIS23       0.2291
     15  O         14.9130    2.6050   25.8820 O.2    23  HIS23      -0.2864
     16  CB        17.9110    3.3940   25.6390 C.3    23  HIS23       0.0771
     17  CG        17.7230    4.0790   24.3030 C.ar   23  HIS23       0.0820
     18  ND1       18.4850    3.7860   23.1860 N.ar   23  HIS23      -0.2267
     19  CD2       16.8490    5.0480   23.9150 C.ar   23  HIS23       0.1154
     20  CE1       18.0930    4.5490   22.1750 C.ar   23  HIS23       0.1986
     21  NE2       17.1030    5.3220   22.5920 N.ar   23  HIS23      -0.2212
     22  N         18.7620    5.2300   17.7550 N.3    50  MET50      -0.1230
     23  CA        19.8130    4.2730   18.0810 C.3    50  MET50       0.1702
     24  C         21.1880    4.8900   17.7650 C.2    50  MET50       0.2592
     25  O         22.1450    4.7420   18.5450 O.2    50  MET50      -0.2718
     26  CB        19.6300    2.9540   17.2880 C.3    50  MET50       0.0401
     27  CG        18.2630    2.2880   17.5730 C.3    50  MET50       0.0596
     28  SD        18.0450    2.1480   19.4270 S.3    50  MET50      -0.1393
     29  CE        19.2950    1.0560   19.7460 C.3    50  MET50       0.0692
     30  N         21.3010    5.5400   16.6050 N.am   51  TYR51      -0.1962
     31  CA        22.6100    6.1050   16.2170 C.3    51  TYR51       0.1771
     32  C         23.1580    7.2280   17.1140 C.2    51  TYR51       0.2619
     33  O         24.3360    7.6010   17.0350 O.2    51  TYR51      -0.2715
     34  CB        22.7740    6.3330   14.7040 C.3    51  TYR51       0.0574
     35  CG        22.9280    5.0100   13.9350 C.ar   51  TYR51      -0.0198
     36  CD1       21.8140    4.2630   13.4920 C.ar   51  TYR51      -0.0009
     37  CD2       24.1990    4.5110   13.6750 C.ar   51  TYR51      -0.0009
     38  CE1       22.0120    3.0100   12.7950 C.ar   51  TYR51       0.0417
     39  CE2       24.4260    3.2850   12.9910 C.ar   51  TYR51       0.0417
     40  CZ        23.3270    2.5570   12.5610 C.ar   51  TYR51       0.1957
     41  OH        23.5390    1.3980   11.9060 O.3    51  TYR51      -0.2866
     42  N         22.2960    7.7540   17.9940 N.am   52  ARG52      -0.1963
     43  CA        22.7390    8.7800   18.9380 C.3    52  ARG52       0.1729
     44  C         23.8660    8.2110   19.7790 C.2    52  ARG52       0.2616
     45  O         24.6920    8.9630   20.3280 O.2    52  ARG52      -0.2715
     46  CB        21.6190    9.1230   19.9430 C.3    52  ARG52       0.0348
     47  CG        21.3670    7.9050   20.8750 C.3    52  ARG52       0.0492
     48  CD        20.5970    8.1880   22.2060 C.3    52  ARG52       0.2205
     49  NE        20.6350    7.0560   23.1690 N.pl3  52  ARG52      -0.0865
     50  CZ        21.7290    6.5930   23.8070 C.cat  52  ARG52       0.5346
     51  NH1       22.9340    7.1400   23.6130 N.pl3  52  ARG52       0.1354
     52  NH2       21.6240    5.5660   24.6580 N.pl3  52  ARG52       0.1354
     53  N         23.8820    6.8890   19.9660 N.am   53  ALA53      -0.1963
     54  CA        24.9410    6.2980   20.7960 C.3    53  ALA53       0.1728
     55  C         26.3350    6.4710   20.1790 C.2    53  ALA53       0.2616
     56  O         27.3670    6.3770   20.8850 O.2    53  ALA53      -0.2715
     57  CB        24.6510    4.7930   21.0490 C.3    53  ALA53       0.0334
     58  N         26.3890    6.6090   18.8520 N.am   54  LEU54      -0.1977
     59  CA        27.6680    6.9540   18.1990 C.3    54  LEU54       0.1596
     60  C         27.8340    8.5090   18.1390 C.2    54  LEU54       0.2287
     61  O         28.9220    9.0340   18.3260 O.2    54  LEU54      -0.2864
     62  CB        27.7530    6.3800   16.7620 C.3    54  LEU54       0.0297
     63  CG        27.6360    4.8520   16.6930 C.3    54  LEU54       0.0022
     64  CD1       27.9140    4.3710   15.2640 C.3    54  LEU54       0.0001
     65  CD2       28.6700    4.2370   17.6290 C.3    54  LEU54       0.0001
     66  N         31.0000   10.9360   16.9650 N.3    63  PHE63      -0.1241
     67  CA        30.6920   10.7990   15.5340 C.3    63  PHE63       0.1605
     68  C         29.8140   11.8910   14.9760 C.2    63  PHE63       0.2264
     69  O         29.7380   12.0850   13.7600 O.2    63  PHE63      -0.2867
     70  CB        30.1300    9.4200   15.1460 C.3    63  PHE63       0.0534
     71  CG        31.1420    8.2480   15.2700 C.ar   63  PHE63      -0.0203
     72  CD1       31.8190    7.7710   14.1340 C.ar   63  PHE63      -0.0042
     73  CD2       31.3920    7.6350   16.4890 C.ar   63  PHE63      -0.0042
     74  CE1       32.7220    6.7070   14.2280 C.ar   63  PHE63      -0.0003
     75  CE2       32.2680    6.5910   16.6160 C.ar   63  PHE63      -0.0003
     76  CZ        32.9610    6.1060   15.4640 C.ar   63  PHE63      -0.0000
     77  N         28.8800    8.1080    9.0060 N.3    68  VAL68      -0.1245
     78  CA        28.2790    6.8810    9.5820 C.3    68  VAL68       0.1561
     79  C         26.9910    7.1540   10.3900 C.2    68  VAL68       0.2260
     80  O         26.0320    6.4150   10.3050 O.2    68  VAL68      -0.2867
     81  CB        29.2290    6.2150   10.5820 C.3    68  VAL68       0.0252
     82  CG1       28.5910    4.9280   11.0900 C.3    68  VAL68       0.0019
     83  CG2       30.4900    5.7990    9.8670 C.3    68  VAL68       0.0019
     84  N         35.4970    3.4150   22.5900 N.3   161  LEU161     -0.1245
     85  CA        34.7020    2.3030   22.0540 C.3   161  LEU161      0.1561
     86  C         34.1780    1.4550   23.2330 C.2   161  LEU161      0.2260
     87  O         33.0890    0.9170   23.1730 O.2   161  LEU161     -0.2867
     88  CB        35.5580    1.4120   21.1510 C.3   161  LEU161      0.0270
     89  CG        36.0190    1.9760   19.8080 C.3   161  LEU161      0.0019
     90  CD1       36.8600    1.1140   18.9060 C.3   161  LEU161      0.0001
     91  CD2       35.0700    2.8970   19.0820 C.3   161  LEU161      0.0001
     92  N         31.1400    3.3650   24.3750 N.3   164  ILE164     -0.1231
     93  CA        29.9270    3.1130   23.5890 C.3   164  ILE164      0.1692
     94  C         29.2060    1.8540   24.0660 C.2   164  ILE164      0.2592
     95  O         27.9790    1.8500   24.2310 O.2   164  ILE164     -0.2718
     96  CB        30.2880    3.0270   22.0740 C.3   164  ILE164      0.0266
     97  CG1       30.6470    4.4620   21.5710 C.3   164  ILE164      0.0019
     98  CG2       29.2340    2.2300   21.2710 C.3   164  ILE164      0.0020
     99  CD1       31.4660    4.4790   20.1890 C.3   164  ILE164      0.0001
    100  N         29.9480    0.7800   24.2660 N.am  165  THR165     -0.1953
    101  CA        29.3180   -0.4440   24.6990 C.3   165  THR165      0.1897
    102  C         28.8290   -0.3070   26.1470 C.2   165  THR165      0.2313
    103  O         27.7190   -0.6860   26.4730 O.2   165  THR165     -0.2863
    104  CB        30.2600   -1.6360   24.5290 C.3   165  THR165      0.1794
    105  OG1       30.2840   -2.0170   23.1420 O.3   165  THR165     -0.2208
    106  CG2       29.9020   -2.7940   25.4360 C.3   165  THR165      0.0378
    107  N         27.7470    2.2850   27.5220 N.3   167  SER167     -0.1202
    108  CA        26.5920    3.1740   27.6040 C.3   167  SER167      0.2020
    109  C         25.2480    2.4190   27.6150 C.2   167  SER167      0.2619
    110  O         24.2160    2.9760   27.9880 O.2   167  SER167     -0.2717
    111  CB        26.5960    4.2580   26.5100 C.3   167  SER167      0.2103
    112  OG        26.4280    3.7290   25.1730 O.3   167  SER167     -0.2182
    113  N         25.2490    1.1460   27.2410 N.am  168  ARG168     -0.1965
    114  CA        24.0110    0.3820   27.2030 C.3   168  ARG168      0.1729
    115  C         23.4460    0.3370   28.6310 C.2   168  ARG168      0.2616
    116  O         24.0890   -0.1780   29.5650 O.2   168  ARG168     -0.2715
    117  CB        24.3350   -1.0400   26.7040 C.3   168  ARG168      0.0348
    118  CG        23.1380   -1.9380   26.5780 C.3   168  ARG168      0.0492
    119  CD        23.4410   -3.0810   25.6060 C.3   168  ARG168      0.2205
    120  NE        24.4870   -4.0090   25.9810 N.pl3 168  ARG168     -0.0865
    121  CZ        24.3480   -4.9200   26.9400 C.cat 168  ARG168      0.5346
    122  NH1       25.3560   -5.7430   27.1870 N.pl3 168  ARG168      0.1354
    123  NH2       23.2000   -4.9990   27.6560 N.pl3 168  ARG168      0.1354
    124  N         22.2360    0.8640   28.7760 N.am  169  ASN169     -0.1972
    125  CA        21.6110    1.1280   30.0810 C.3   169  ASN169      0.1688
    126  C         21.3960   -0.1590   30.8900 C.2   169  ASN169      0.2292
    127  O         21.5260   -0.1740   32.1200 O.2   169  ASN169     -0.2864
    128  CB        20.2650    1.8310   29.8440 C.3   169  ASN169      0.1181
    129  CG        20.3960    3.0690   28.9350 C.2   169  ASN169      0.2629
    130  OD1       19.9540    4.2140   29.4310 O.2   169  ASN169     -0.2716
    131  ND2       20.8830    2.9830   27.8030 N.am  169  ASN169     -0.0877
    132  N         38.3210    6.4250   12.9390 N.3   243  ILE243     -0.1231
    133  CA        37.9230    5.1920   13.6510 C.3   243  ILE243      0.1692
    134  C         37.4480    4.0930   12.6840 C.2   243  ILE243      0.2591
    135  O         37.9910    2.9770   12.7280 O.2   243  ILE243     -0.2718
    136  CB        36.8520    5.4690   14.7260 C.3   243  ILE243      0.0266
    137  CG1       37.5200    6.3210   15.8570 C.3   243  ILE243      0.0019
    138  CG2       36.3240    4.1460   15.3560 C.3   243  ILE243      0.0020
    139  CD1       36.4390    6.7570   16.9520 C.3   243  ILE243      0.0001
    140  N         36.4550    4.4170   11.8590 N.am  244  ALA244     -0.1980
    141  CA        35.8720    3.4430   10.9260 C.3   244  ALA244      0.1597
    142  C         36.9570    2.9530    9.9870 C.2   244  ALA244      0.2287
    143  O         36.9320    1.8160    9.5260 O.2   244  ALA244     -0.2864
    144  CB        34.7040    4.0360   10.1310 C.3   244  ALA244      0.0319
    145  N         39.6330    0.6520   12.8080 N.3   247  GLU247     -0.1231
    146  CA        39.3190   -0.2540   13.9670 C.3   247  GLU247      0.1699
    147  C         38.7730   -1.6250   13.4470 C.2   247  GLU247      0.2592
    148  O         39.2290   -2.7340   13.8280 O.2   247  GLU247     -0.2718
    149  CB        38.2910    0.4160   14.9100 C.3   247  GLU247      0.0402
    150  CG        37.7440   -0.5490   16.0700 C.3   247  GLU247      0.1161
    151  CD        38.8090   -0.9440   17.1250 C.2   247  GLU247      0.3649
    152  OE1       39.8560   -0.2730   17.2010 O.co2 247  GLU247     -0.2457
    153  OE2       38.6230   -1.9240   17.8930 O.co2 247  GLU247     -0.2457
    154  N         37.8230   -1.5360   12.5390 N.am  248  THR248     -0.1953
    155  CA        37.2210   -2.7590   11.9950 C.3   248  THR248      0.1897
    156  C         38.2090   -3.5680   11.1990 C.2   248  THR248      0.2313
    157  O         38.2150   -4.7580   11.3300 O.2   248  THR248     -0.2863
    158  CB        35.9050   -2.5110   11.2780 C.3   248  THR248      0.1794
    159  OG1       36.1320   -1.5770   10.2290 O.3   248  THR248     -0.2208
    160  CG2       34.9780   -1.8310   12.2300 C.3   248  THR248      0.0378
    161  N         31.7590   -5.5290   12.5800 N.3   309  ALA309     -0.1231
    162  CA        30.5620   -4.6890   12.5830 C.3   309  ALA309      0.1694
    163  C         29.3880   -5.6700   12.5720 C.2   309  ALA309      0.2592
    164  O         29.0510   -6.2220   11.5340 O.2   309  ALA309     -0.2718
    165  CB        30.5150   -3.7530   11.3740 C.3   309  ALA309      0.0304
    166  N         28.8210   -5.9240   13.7410 N.am  310  TRP310     -0.1962
    167  CA        27.9450   -7.0670   13.9070 C.3   310  TRP310      0.1771
    168  C         26.4730   -6.7680   13.7070 C.2   310  TRP310      0.2620
    169  O         25.6680   -7.7100   13.6620 O.2   310  TRP310     -0.2715
    170  CB        28.1790   -7.6460   15.3140 C.3   310  TRP310      0.0590
    171  CG        28.0500   -6.5200   16.3710 C.ar  310  TRP310      0.0006
    172  CD1       29.0450   -5.7120   16.8290 C.ar  310  TRP310      0.0946
    173  CD2       26.8620   -6.1340   17.0800 C.ar  310  TRP310      0.0152
    174  NE1       28.5690   -4.8500   17.7840 N.ar  310  TRP310     -0.2442
    175  CE2       27.2270   -5.0960   17.9710 C.ar  310  TRP310      0.0810
    176  CE3       25.5210   -6.5870   17.0600 C.ar  310  TRP310      0.0012
    177  CZ2       26.3050   -4.4960   18.8620 C.ar  310  TRP310      0.0191
    178  CZ3       24.5830   -5.9780   17.9430 C.ar  310  TRP310      0.0001
    179  CH2       24.9890   -4.9540   18.8270 C.ar  310  TRP310      0.0015
    180  N         26.0970   -5.4890   13.6300 N.am  311  GLY311     -0.1954
    181  CA        24.6570   -5.1590   13.5160 C.3   311  GLY311      0.1869
    182  C         24.4190   -3.8110   12.8730 C.2   311  GLY311      0.2309
    183  O         25.3120   -2.9750   12.8850 O.2   311  GLY311     -0.2863
    184  N         20.9900   -0.7750   12.3070 N.3   313  PHE313     -0.1241
    185  CA        19.5690   -0.5390   12.5760 C.3   313  PHE313      0.1605
    186  C         18.8810    0.3120   11.5190 C.2   313  PHE313      0.2264
    187  O         19.4870    1.2640   10.9940 O.2   313  PHE313     -0.2867
    188  CB        19.3730    0.2800   13.8580 C.3   313  PHE313      0.0534
    189  CG        19.7570   -0.4160   15.1400 C.ar  313  PHE313     -0.0203
    190  CD1       18.8610   -1.2310   15.8070 C.ar  313  PHE313     -0.0042
    191  CD2       21.0020   -0.2290   15.6770 C.ar  313  PHE313     -0.0042
    192  CE1       19.2300   -1.8480   17.0150 C.ar  313  PHE313     -0.0003
    193  CE2       21.3650   -0.8380   16.8560 C.ar  313  PHE313     -0.0003
    194  CZ        20.4620   -1.6560   17.5220 C.ar  313  PHE313     -0.0000
    195  N         32.5910   -7.5010   22.7440 N.3   414  GLU414     -0.1245
    196  CA        32.0270   -6.3510   22.0680 C.3   414  GLU414      0.1567
    197  C         32.6250   -5.1100   22.7110 C.2   414  GLU414      0.2260
    198  O         32.4550   -4.9050   23.9280 O.2   414  GLU414     -0.2867
    199  CB        30.4900   -6.3350   22.2710 C.3   414  GLU414      0.0388
    200  CG        29.8070   -5.1280   21.6050 C.3   414  GLU414      0.1160
    201  CD        28.3660   -4.8380   22.1380 C.2   414  GLU414      0.3649
    202  OE1       27.5550   -5.7610   22.3120 O.co2 414  GLU414     -0.2457
    203  OE2       28.0710   -3.6430   22.3680 O.co2 414  GLU414     -0.2457
    204  N         32.0600   -1.6600   21.1070 N.3   416  ALA416     -0.1231
    205  CA        31.3880   -1.1820   19.8940 C.3   416  ALA416      0.1694
    206  C         31.4210   -2.3300   18.8710 C.2   416  ALA416      0.2592
    207  O         30.3780   -3.0030   18.6310 O.2   416  ALA416     -0.2718
    208  CB        32.0420    0.0890   19.3110 C.3   416  ALA416      0.0304
    209  N         32.5980   -2.5330   18.2660 N.am  417  THR417     -0.1953
    210  CA        32.7700   -3.6150   17.3000 C.3   417  THR417      0.1897
    211  C         33.0660   -4.8730   18.0810 C.2   417  THR417      0.2313
    212  O         33.4350   -4.7890   19.2670 O.2   417  THR417     -0.2863
    213  CB        33.9780   -3.3420   16.3080 C.3   417  THR417      0.1794
    214  OG1       35.1430   -3.0230   17.0690 O.3   417  THR417     -0.2208
    215  CG2       33.6880   -2.1700   15.3270 C.3   417  THR417      0.0378
@<TRIPOS>BOND
     1    77    78    1
     2   143   142    2
     3    78    79    1
     4    78    81    1
     5    83    81    1
     6   142   141    1
     7   144   141    1
     8   159   158    1
     9    80    79    2
    10    81    82    1
    11   141   140    1
    12   187   186    2
    13   156   157    2
    14   156   155    1
    15   158   155    1
    16   158   160    1
    17   165   162    1
    18   186   185    1
    19   164   163    2
    20   140   134   am
    21    41    40    1
    22   155   154    1
    23   184   185    1
    24   154   147   am
    25    40    38   ar
    26    40    39   ar
    27   163   162    1
    28   163   166   am
    29   185   188    1
    30   161   162    1
    31   134   135    2
    32   134   133    1
    33    38    36   ar
    34   145   146    1
    35   182   183    2
    36   182   181    1
    37   132   133    1
    38    39    37   ar
    39   147   148    2
    40   147   146    1
    41    36    35   ar
    42   181   180    1
    43   180   168   am
    44   133   136    1
    45   169   168    2
    46    37    35   ar
    47   168   167    1
    48   166   167    1
    49    69    68    2
    50   188   189    1
    51   167   170    1
    52    35    34    1
    53   146   149    1
    54    72    74   ar
    55    72    71   ar
    56    74    76   ar
    57    34    31    1
    58   136   138    1
    59   136   137    1
    60   149   150    1
    61    68    67    1
    62   189   191   ar
    63   189   190   ar
    64    70    71    1
    65    70    67    1
    66    64    63    1
    67    71    73   ar
    68   170   171    1
    69   215   213    1
    70    76    75   ar
    71    67    66    1
    72   191   193   ar
    73   190   192   ar
    74   137   139    1
    75   150   151    1
    76    31    30    1
    77    31    32    1
    78   213   214    1
    79   213   210    1
    80   171   172   ar
    81   171   173   ar
    82    73    75   ar
    83    30    24   am
    84    63    62    1
    85    63    65    1
    86    62    59    1
    87   172   174   ar
    88   193   194   ar
    89   192   194   ar
    90    33    32    2
    91   176   173   ar
    92   176   178   ar
    93   173   175   ar
    94    32    42   am
    95   151   152   ar
    96   151   153   ar
    97    26    27    1
    98    26    23    1
    99   210   211    1
   100   210   209    1
   101    27    28    1
   102    22    23    1
   103    24    23    1
   104    24    25    2
   105   174   175   ar
   106   178   179   ar
   107   175   177   ar
   108    42    43    1
   109   211   212    2
   110    60    59    1
   111    60    61    2
   112    59    58    1
   113   209   206   am
   114   207   206    2
   115   179   177   ar
   116    58    55   am
   117   206   205    1
   118    90    89    1
   119    43    44    1
   120    43    46    1
   121    91    89    1
   122   208   205    1
   123    28    29    1
   124    44    53   am
   125    44    45    2
   126    89    88    1
   127   205   204    1
   128    46    47    1
   129    53    54    1
   130    55    54    1
   131    55    56    2
   132    99    97    1
   133     9    11   ar
   134     9     7   ar
   135    54    57    1
   136    47    48    1
   137    11    10   ar
   138    88    85    1
   139    98    96    1
   140     7     6   ar
   141    97    96    1
   142   200   201    1
   143   200   199    1
   144    10     8   ar
   145    85    84    1
   146    85    86    1
   147   196   199    1
   148   196   197    1
   149   196   195    1
   150    96    93    1
   151   201   202   ar
   152   201   203   ar
   153    20    21   ar
   154    20    18   ar
   155    48    49    1
   156     6     8   ar
   157     6     5    1
   158    21    19   ar
   159   197   198    2
   160     5     2    1
   161   105   104    1
   162    49    50    2
   163    87    86    2
   164    18    17   ar
   165    93    94    1
   166    93    92    1
   167    51    50    1
   168    50    52    1
   169    19    17   ar
   170    94    95    2
   171    94   100   am
   172   100   101    1
   173    17    16    1
   174     2     1    1
   175     2     3    1
   176   104   101    1
   177   104   106    1
   178   101   102    1
   179    12     3   am
   180    12    13    1
   181     3     4    2
   182   112   111    1
   183    14    13    1
   184    14    15    2
   185   119   120    1
   186   119   118    1
   187    16    13    1
   188   120   121    2
   189   102   103    2
   190   111   108    1
   191   118   117    1
   192   117   114    1
   193   121   122    1
   194   121   123    1
   195   114   113    1
   196   114   115    1
   197   113   109   am
   198   107   108    1
   199   108   109    1
   200   109   110    2
   201   131   129   am
   202   115   124   am
   203   115   116    2
   204   124   125    1
   205   129   130    2
   206   129   128    1
   207   128   125    1
   208   125   126    1
   209   126   127    2
