@<TRIPOS>MOLECULE
tmp/2q9hA00.pdb
 87 81 0 0 0
SMALL
GASTEIGER

@<TRIPOS>ATOM
      1  N         22.5970    9.1410   23.8660 N.3     8  GLY8       -0.1210
      2  CA        22.9590    9.9870   22.7450 C.3     8  GLY8        0.1956
      3  C         24.4630   10.1640   22.7220 C.2     8  GLY8        0.2611
      4  O         25.0340   10.6930   23.6680 O.2     8  GLY8       -0.2717
      5  N         25.1080    9.6920   21.6630 N.am    9  LEU9       -0.1979
      6  CA        26.5560    9.8110   21.5130 C.3     9  LEU9        0.1596
      7  C         27.3770    9.6560   22.7940 C.2     9  LEU9        0.2287
      8  O         27.6640   10.6310   23.4810 O.2     9  LEU9       -0.2864
      9  CB        26.8940   11.1570   20.8680 C.3     9  LEU9        0.0297
     10  CG        27.4410   11.1660   19.4350 C.3     9  LEU9        0.0022
     11  CD1       26.5120   10.3990   18.4990 C.3     9  LEU9        0.0001
     12  CD2       27.6010   12.6190   18.9770 C.3     9  LEU9        0.0001
     13  N         26.8170    9.0030   25.8280 N.3    11  ASN11      -0.1240
     14  CA        26.1730    9.1290   27.1430 C.3    11  ASN11       0.1653
     15  C         24.7870    8.5060   27.2390 C.2    11  ASN11       0.2266
     16  O         23.9850    8.6050   26.3100 O.2    11  ASN11      -0.2867
     17  CB        26.0520   10.5930   27.5620 C.3    11  ASN11       0.1155
     18  CG        27.3740   11.2020   27.9430 C.2    11  ASN11       0.2627
     19  OD1       27.4180   12.2750   28.5420 O.2    11  ASN11      -0.2716
     20  ND2       28.4650   10.5280   27.5940 N.am   11  ASN11      -0.0877
     21  N         21.3010    8.4620   29.5070 N.3    13  PHE13      -0.1241
     22  CA        20.5520    9.1990   30.5180 C.3    13  PHE13       0.1605
     23  C         19.3090    8.4850   31.0180 C.2    13  PHE13       0.2264
     24  O         18.7490    7.6030   30.3580 O.2    13  PHE13      -0.2867
     25  CB        20.0110   10.5350   29.9840 C.3    13  PHE13       0.0534
     26  CG        21.0250   11.4250   29.3240 C.ar   13  PHE13      -0.0203
     27  CD1       21.5850   11.0840   28.1030 C.ar   13  PHE13      -0.0042
     28  CD2       21.3560   12.6510   29.9000 C.ar   13  PHE13      -0.0042
     29  CE1       22.4590   11.9510   27.4530 C.ar   13  PHE13      -0.0003
     30  CE2       22.2300   13.5270   29.2590 C.ar   13  PHE13      -0.0003
     31  CZ        22.7830   13.1780   28.0320 C.ar   13  PHE13      -0.0000
     32  N         23.7270   22.7590   25.6580 N.3    74  GLY74      -0.1210
     33  CA        23.3160   21.7650   24.6830 C.3    74  GLY74       0.1956
     34  C         23.2540   20.3140   25.1230 C.2    74  GLY74       0.2612
     35  O         22.5900   19.5030   24.4740 O.2    74  GLY74      -0.2717
     36  N         23.9320   19.9750   26.2120 N.am   75  ASN75      -0.1960
     37  CA        23.9370   18.5990   26.6910 C.3    75  ASN75       0.1819
     38  C         22.5390   18.1090   27.0690 C.2    75  ASN75       0.2622
     39  O         21.7770   18.8130   27.7380 O.2    75  ASN75      -0.2715
     40  CB        24.8610   18.4560   27.8960 C.3    75  ASN75       0.1195
     41  CG        25.2040   17.0130   28.1870 C.2    75  ASN75       0.2630
     42  OD1       26.0020   16.3930   27.4820 O.2    75  ASN75      -0.2716
     43  ND2       24.5900   16.4630   29.2230 N.am   75  ASN75      -0.0877
     44  N         22.2140   16.8980   26.6230 N.am   76  GLY76      -0.1940
     45  CA        20.9230   16.3070   26.9110 C.3    76  GLY76       0.2014
     46  C         19.7670   16.9120   26.1370 C.2    76  GLY76       0.2639
     47  O         18.6320   16.4610   26.2760 O.2    76  GLY76      -0.2714
     48  N         20.0500   17.9110   25.3020 N.am   77  ALA77      -0.1963
     49  CA        18.9880   18.5730   24.5440 C.3    77  ALA77       0.1728
     50  C         18.2250   17.6260   23.6080 C.2    77  ALA77       0.2616
     51  O         17.0010   17.6490   23.5340 O.2    77  ALA77      -0.2715
     52  CB        19.5570   19.7320   23.7540 C.3    77  ALA77       0.0334
     53  N         18.9550   16.7780   22.8990 N.am   78  ARG78      -0.1963
     54  CA        18.3280   15.8700   21.9600 C.3    78  ARG78       0.1729
     55  C         17.4880   14.8000   22.6380 C.2    78  ARG78       0.2616
     56  O         16.3800   14.5030   22.1800 O.2    78  ARG78      -0.2715
     57  CB        19.3960   15.2530   21.0620 C.3    78  ARG78       0.0348
     58  CG        20.2600   16.3220   20.4120 C.3    78  ARG78       0.0492
     59  CD        21.0080   15.8000   19.2110 C.3    78  ARG78       0.2205
     60  NE        21.9850   14.7870   19.5730 N.pl3  78  ARG78      -0.0865
     61  CZ        23.0480   15.0140   20.3360 C.cat  78  ARG78       0.5346
     62  NH1       23.2730   16.2320   20.8230 N.pl3  78  ARG78       0.1354
     63  NH2       23.8930   14.0190   20.5950 N.pl3  78  ARG78       0.1354
     64  N         17.9990   14.2240   23.7240 N.am   79  CYS79      -0.1968
     65  CA        17.2380   13.2070   24.4450 C.3    79  CYS79       0.1712
     66  C         15.9930   13.8590   25.0380 C.2    79  CYS79       0.2296
     67  O         14.9200   13.2580   25.0750 O.2    79  CYS79      -0.2864
     68  CB        18.0850   12.5710   25.5520 C.3    79  CYS79       0.0983
     69  SG        19.2500   11.3280   24.9360 S.3    79  CYS79      -0.0798
     70  N         31.7710   12.9900   24.5780 N.3   216  ALA216     -0.1245
     71  CA        31.1810   13.9380   23.6460 C.3   216  ALA216      0.1562
     72  C         30.7690   15.2450   24.2990 C.2   216  ALA216      0.2260
     73  O         30.0930   15.2550   25.3270 O.2   216  ALA216     -0.2867
     74  CB        29.9800   13.3080   22.9580 C.3   216  ALA216      0.0290
     75  N         28.9340   18.4350   22.9080 N.3   218  GLY218     -0.1225
     76  CA        28.2330   19.1150   21.8340 C.3   218  GLY218      0.1811
     77  C         28.6170   20.5680   21.6200 C.2   218  GLY218      0.2280
     78  O         28.9660   20.9570   20.5070 O.2   218  GLY218     -0.2866
     79  N         21.4260   12.5070   16.8130 N.3   263  GLU263     -0.1245
     80  CA        20.4180   11.5420   17.2290 C.3   263  GLU263      0.1567
     81  C         20.2130   11.4530   18.7350 C.2   263  GLU263      0.2260
     82  O         21.0400   11.9060   19.5220 O.2   263  GLU263     -0.2867
     83  CB        20.7830   10.1480   16.7170 C.3   263  GLU263      0.0388
     84  CG        20.8300   10.0190   15.2120 C.3   263  GLU263      0.1160
     85  CD        21.1280    8.5960   14.7760 C.2   263  GLU263      0.3649
     86  OE1       22.2160    8.0770   15.1290 O.co2 263  GLU263     -0.2457
     87  OE2       20.2710    7.9950   14.0920 O.co2 263  GLU263     -0.2457
@<TRIPOS>BOND
     1    87    85   ar
     2    85    86   ar
     3    85    84    1
     4    84    83    1
     5    83    80    1
     6    79    80    1
     7    80    81    1
     8    11    10    1
     9    81    82    2
    10    12    10    1
    11    59    60    1
    12    59    58    1
    13    10     9    1
    14    60    61    2
    15    61    63    1
    16    61    62    1
    17    58    57    1
    18    78    77    2
    19     9     6    1
    20    57    54    1
    21     6     5    1
    22     6     7    1
    23    77    76    1
    24     5     3   am
    25    76    75    1
    26    54    55    1
    27    54    53    1
    28    56    55    2
    29    55    64   am
    30     3     2    1
    31     3     4    2
    32     2     1    1
    33     7     8    2
    34    53    50   am
    35    74    71    1
    36    51    50    2
    37    50    49    1
    38    71    72    1
    39    71    70    1
    40    64    65    1
    41    52    49    1
    42    72    73    2
    43    65    66    1
    44    65    68    1
    45    35    34    2
    46    49    48    1
    47    33    34    1
    48    33    32    1
    49    69    68    1
    50    66    67    2
    51    34    36   am
    52    48    46   am
    53    13    14    1
    54    46    47    2
    55    46    45    1
    56    36    37    1
    57    16    15    2
    58    44    45    1
    59    44    38   am
    60    37    38    1
    61    37    40    1
    62    38    39    2
    63    14    15    1
    64    14    17    1
    65    29    31   ar
    66    29    27   ar
    67    42    41    2
    68    17    18    1
    69    20    18   am
    70    40    41    1
    71    18    19    2
    72    31    30   ar
    73    27    26   ar
    74    41    43   am
    75    30    28   ar
    76    26    28   ar
    77    26    25    1
    78    21    22    1
    79    25    22    1
    80    24    23    2
    81    22    23    1
