@<TRIPOS>MOLECULE
tmp/2q9mA00.pdb
 114 105 0 0 0
SMALL
GASTEIGER

@<TRIPOS>ATOM
      1  N         20.5260   17.1470   21.5160 N.3    63  SER63      -0.1217
      2  CA        19.8520   16.1370   22.3410 C.3    63  SER63       0.1889
      3  C         19.6340   14.7780   21.6880 C.2    63  SER63       0.2288
      4  O         19.2980   13.8210   22.3870 O.2    63  SER63      -0.2866
      5  CB        18.5220   16.6570   22.8920 C.3    63  SER63       0.2089
      6  OG        18.7150   17.7580   23.7700 O.3    63  SER63      -0.2183
      7  N         20.9580   11.7330   23.1870 N.3    66  LYS66      -0.1245
      8  CA        20.2920   10.9560   24.2240 C.3    66  LYS66       0.1561
      9  C         19.7970    9.5960   23.7530 C.2    66  LYS66       0.2260
     10  O         19.5770    8.7200   24.5790 O.2    66  LYS66      -0.2867
     11  CB        19.1600   11.7520   24.8850 C.3    66  LYS66       0.0271
     12  CG        19.6510   13.0270   25.5460 C.3    66  LYS66       0.0035
     13  CD        18.5040   13.9040   25.9440 C.3    66  LYS66       0.0206
     14  CE        19.0170   15.2330   26.4390 C.3    66  LYS66       0.1093
     15  NZ        17.8600   16.0890   26.6870 N.3    66  LYS66      -0.1314
     16  N         16.6910   21.8080   33.9370 N.3   118  LEU118     -0.1231
     17  CA        17.0490   21.6490   32.5430 C.3   118  LEU118      0.1693
     18  C         18.5410   21.4090   32.3540 C.2   118  LEU118      0.2591
     19  O         18.9420   20.4340   31.7140 O.2   118  LEU118     -0.2718
     20  CB        16.5970   22.8740   31.7340 C.3   118  LEU118      0.0284
     21  CG        16.9470   22.8730   30.2420 C.3   118  LEU118      0.0019
     22  CD1       16.1780   21.7820   29.5370 C.3   118  LEU118      0.0001
     23  CD2       16.6470   24.2340   29.6270 C.3   118  LEU118      0.0001
     24  N         19.3550   22.2400   32.9920 N.am  119  GLN119     -0.1979
     25  CA        20.7930   22.1420   32.8300 C.3   119  GLN119      0.1601
     26  C         21.5450   21.9160   34.1370 C.2   119  GLN119      0.2287
     27  O         21.0310   22.2120   35.2190 O.2   119  GLN119     -0.2864
     28  CB        21.3180   23.4410   32.1740 C.3   119  GLN119      0.0394
     29  CG        20.6710   23.8210   30.8120 C.3   119  GLN119      0.0908
     30  CD        21.0970   22.9240   29.6370 C.2   119  GLN119      0.2608
     31  OE1       21.6690   21.8500   29.8300 O.2   119  GLN119     -0.2717
     32  NE2       20.8050   23.3640   28.4120 N.am  119  GLN119     -0.0878
     33  N         11.6920   17.8490   31.3230 N.3   149  TYR149     -0.1241
     34  CA        12.8250   17.6110   30.4400 C.3   149  TYR149      0.1605
     35  C         14.1290   18.1840   31.0150 C.2   149  TYR149      0.2264
     36  O         14.2790   19.3990   31.1660 O.2   149  TYR149     -0.2867
     37  CB        12.5210   18.1720   29.0600 C.3   149  TYR149      0.0534
     38  CG        13.4380   17.6540   27.9930 C.ar  149  TYR149     -0.0201
     39  CD1       14.7230   18.1560   27.8700 C.ar  149  TYR149     -0.0009
     40  CD2       13.0050   16.7010   27.0640 C.ar  149  TYR149     -0.0009
     41  CE1       15.5630   17.7420   26.8460 C.ar  149  TYR149      0.0417
     42  CE2       13.8450   16.2730   26.0250 C.ar  149  TYR149      0.0417
     43  CZ        15.1220   16.8090   25.9230 C.ar  149  TYR149      0.1957
     44  OH        15.9640   16.4660   24.8920 O.3   149  TYR149     -0.2866
     45  N         18.6510   17.7430   31.2250 N.3   151  ASN151     -0.1240
     46  CA        19.9480   17.1700   30.9080 C.3   151  ASN151      0.1653
     47  C         20.5830   16.6890   32.2300 C.2   151  ASN151      0.2266
     48  O         21.3140   15.6850   32.2470 O.2   151  ASN151     -0.2867
     49  CB        20.8430   18.2030   30.2180 C.3   151  ASN151      0.1155
     50  CG        20.4580   18.4420   28.7570 C.2   151  ASN151      0.2627
     51  OD1       19.8770   17.5770   28.0980 O.2   151  ASN151     -0.2716
     52  ND2       20.7680   19.6270   28.2530 N.am  151  ASN151     -0.0877
     53  N         24.2470   15.9300   25.1770 N.3   220  TYR220     -0.1241
     54  CA        24.1770   16.7050   23.9400 C.3   220  TYR220      0.1605
     55  C         25.4720   16.8960   23.1610 C.2   220  TYR220      0.2264
     56  O         25.5380   17.7730   22.2910 O.2   220  TYR220     -0.2867
     57  CB        23.6440   18.0980   24.2850 C.3   220  TYR220      0.0534
     58  CG        24.5050   18.8140   25.3160 C.ar  220  TYR220     -0.0201
     59  CD1       25.6330   19.5530   24.9310 C.ar  220  TYR220     -0.0009
     60  CD2       24.2080   18.7330   26.6770 C.ar  220  TYR220     -0.0009
     61  CE1       26.4440   20.1950   25.8900 C.ar  220  TYR220      0.0417
     62  CE2       25.0040   19.3670   27.6330 C.ar  220  TYR220      0.0417
     63  CZ        26.1180   20.0930   27.2390 C.ar  220  TYR220      0.1957
     64  OH        26.9060   20.6960   28.2000 O.3   220  TYR220     -0.2866
     65  N          8.4540   24.5880   22.1930 N.3   288  SER288     -0.1217
     66  CA         9.2830   24.6910   23.4040 C.3   288  SER288      0.1889
     67  C          8.4300   24.8830   24.6560 C.2   288  SER288      0.2288
     68  O          8.7180   24.3050   25.7060 O.2   288  SER288     -0.2866
     69  CB        10.2810   25.8450   23.2970 C.3   288  SER288      0.2089
     70  OG        11.2420   25.6030   22.2850 O.3   288  SER288     -0.2183
     71  N          7.5090   21.2740   25.1410 N.3   291  ALA291     -0.1231
     72  CA         8.6350   20.3580   25.3350 C.3   291  ALA291      0.1694
     73  C          9.3550   20.5440   26.6620 C.2   291  ALA291      0.2591
     74  O          9.8280   19.5720   27.2500 O.2   291  ALA291     -0.2718
     75  CB         9.6230   20.4700   24.1720 C.3   291  ALA291      0.0304
     76  N          9.3940   21.7880   27.1370 N.am  292  LEU292     -0.1980
     77  CA        10.0530   22.1580   28.3890 C.3   292  LEU292      0.1596
     78  C          9.1620   22.3140   29.6290 C.2   292  LEU292      0.2287
     79  O          9.6610   22.6340   30.7120 O.2   292  LEU292     -0.2864
     80  CB        10.8080   23.4670   28.1830 C.3   292  LEU292      0.0297
     81  CG        12.1790   23.3870   27.5200 C.3   292  LEU292      0.0022
     82  CD1       12.5800   24.7460   26.9850 C.3   292  LEU292      0.0001
     83  CD2       13.1820   22.9010   28.5470 C.3   292  LEU292      0.0001
     84  N         14.1990   15.2660   18.5540 N.3   315  THR315     -0.1203
     85  CA        14.7470   16.5200   18.0640 C.3   315  THR315      0.1994
     86  C         16.0060   16.8270   18.8750 C.2   315  THR315      0.2618
     87  O         16.1370   16.3730   20.0160 O.2   315  THR315     -0.2717
     88  CB        13.7480   17.6550   18.3130 C.3   315  THR315      0.1784
     89  OG1       13.5480   17.8180   19.7280 O.3   315  THR315     -0.2211
     90  CG2       12.4170   17.2840   17.7330 C.3   315  THR315      0.0376
     91  N         16.9310   17.5810   18.2900 N.am  316  GLY316     -0.1942
     92  CA        18.1240   17.9650   19.0150 C.3   316  GLY316      0.2014
     93  C         18.5970   19.3040   18.5020 C.2   316  GLY316      0.2639
     94  O         18.4290   19.5940   17.3150 O.2   316  GLY316     -0.2714
     95  N         19.0980   20.1530   19.3960 N.am  317  SER317     -0.1949
     96  CA        19.6410   21.4500   18.9970 C.3   317  SER317      0.1924
     97  C         20.7740   21.9020   19.8810 C.2   317  SER317      0.2314
     98  O         20.8310   21.5700   21.0680 O.2   317  SER317     -0.2863
     99  CB        18.5970   22.5530   19.0770 C.3   317  SER317      0.2116
    100  OG        17.3610   22.1410   18.5570 O.3   317  SER317     -0.2180
    101  N         19.8450   26.1180   14.0180 N.3   342  SER342     -0.1217
    102  CA        18.7660   25.6560   14.8780 C.3   342  SER342      0.1889
    103  C         17.4650   26.3770   14.5280 C.2   342  SER342      0.2288
    104  O         17.1650   27.4200   15.1060 O.2   342  SER342     -0.2866
    105  CB        19.0980   25.8930   16.3460 C.3   342  SER342      0.2089
    106  OG        18.0090   25.4850   17.1560 O.3   342  SER342     -0.2183
    107  N         11.5600   23.7890   15.8520 N.3   345  ASN345     -0.1240
    108  CA        11.2160   22.3680   15.9340 C.3   345  ASN345      0.1653
    109  C          9.9340   22.0150   15.1710 C.2   345  ASN345      0.2266
    110  O          9.8910   20.9920   14.4960 O.2   345  ASN345     -0.2867
    111  CB        11.0890   21.9180   17.4030 C.3   345  ASN345      0.1155
    112  CG        12.4300   21.7940   18.1050 C.2   345  ASN345      0.2627
    113  OD1       13.4730   21.6690   17.4600 O.2   345  ASN345     -0.2716
    114  ND2       12.4080   21.7810   19.4400 N.am  345  ASN345     -0.0877
@<TRIPOS>BOND
     1   101   102    1
     2   110   109    2
     3   103   102    1
     4   103   104    2
     5   102   105    1
     6   109   108    1
     7   107   108    1
     8   108   111    1
     9   105   106    1
    10    94    93    2
    11   111   112    1
    12   113   112    2
    13    90    88    1
    14    85    88    1
    15    85    84    1
    16    85    86    1
    17   112   114   am
    18    91    86   am
    19    91    92    1
    20    88    89    1
    21    93    92    1
    22    93    95   am
    23   100    99    1
    24    86    87    2
    25    96    99    1
    26    96    95    1
    27    96    97    1
    28    97    98    2
    29     1     2    1
    30     3     2    1
    31     3     4    2
    32    65    66    1
    33    70    69    1
    34    56    55    2
    35     2     5    1
    36     5     6    1
    37    55    54    1
    38     7     8    1
    39    69    66    1
    40    66    67    1
    41     9     8    1
    42     9    10    2
    43    54    57    1
    44    54    53    1
    45    75    72    1
    46     8    11    1
    47    57    58    1
    48    67    68    2
    49    11    12    1
    50    44    43    1
    51    59    58   ar
    52    59    61   ar
    53    71    72    1
    54    58    60   ar
    55    72    73    1
    56    12    13    1
    57    61    63   ar
    58    43    42   ar
    59    43    41   ar
    60    13    14    1
    61    42    40   ar
    62    14    15    1
    63    73    76   am
    64    73    74    2
    65    60    62   ar
    66    41    39   ar
    67    82    81    1
    68    40    38   ar
    69    76    77    1
    70    63    62   ar
    71    63    64    1
    72    81    80    1
    73    81    83    1
    74    39    38   ar
    75    38    37    1
    76    51    50    2
    77    80    77    1
    78    52    50   am
    79    77    78    1
    80    32    30   am
    81    50    49    1
    82    37    34    1
    83    22    21    1
    84    23    21    1
    85    78    79    2
    86    30    31    2
    87    30    29    1
    88    49    46    1
    89    21    20    1
    90    34    35    1
    91    34    33    1
    92    29    28    1
    93    46    45    1
    94    46    47    1
    95    35    36    2
    96    19    18    2
    97    20    17    1
    98    28    25    1
    99    47    48    2
   100    18    17    1
   101    18    24   am
   102    17    16    1
   103    25    24    1
   104    25    26    1
   105    26    27    2
