@<TRIPOS>MOLECULE
tmp/2q9nA00.pdb
 100 94 0 0 0
SMALL
GASTEIGER

@<TRIPOS>ATOM
      1  N         21.0850   16.3040   21.2990 N.3    63  SER63      -0.1217
      2  CA        20.3120   15.4080   22.1610 C.3    63  SER63       0.1889
      3  C         20.0290   14.0180   21.5600 C.2    63  SER63       0.2288
      4  O         19.6020   13.1040   22.2700 O.2    63  SER63      -0.2866
      5  CB        19.0060   16.0840   22.5750 C.3    63  SER63       0.2089
      6  OG        19.2770   17.1480   23.4720 O.3    63  SER63      -0.2183
      7  N         17.2530   20.5040   33.6680 N.3   118  LEU118     -0.1231
      8  CA        17.6250   20.3120   32.2700 C.3   118  LEU118      0.1693
      9  C         19.1290   20.1570   32.1140 C.2   118  LEU118      0.2591
     10  O         19.6090   19.3790   31.2960 O.2   118  LEU118     -0.2718
     11  CB        17.1750   21.5130   31.4460 C.3   118  LEU118      0.0284
     12  CG        17.5210   21.5040   29.9580 C.3   118  LEU118      0.0019
     13  CD1       16.9450   20.2540   29.2920 C.3   118  LEU118      0.0001
     14  CD2       16.9750   22.7720   29.2960 C.3   118  LEU118      0.0001
     15  N         19.8830   20.8680   32.9310 N.am  119  GLN119     -0.1979
     16  CA        21.3130   20.7950   32.7770 C.3   119  GLN119      0.1601
     17  C         22.0730   20.5290   34.0520 C.2   119  GLN119      0.2287
     18  O         21.5820   20.7850   35.1470 O.2   119  GLN119     -0.2864
     19  CB        21.8210   22.1120   32.1870 C.3   119  GLN119      0.0394
     20  CG        20.9420   22.6950   31.0970 C.3   119  GLN119      0.0908
     21  CD        21.5260   22.4790   29.7270 C.2   119  GLN119      0.2608
     22  OE1       21.9450   21.3640   29.3820 O.2   119  GLN119     -0.2717
     23  NE2       21.5680   23.5460   28.9250 N.am  119  GLN119     -0.0878
     24  N         12.0600   16.5390   31.2790 N.3   149  TYR149     -0.1241
     25  CA        13.1630   16.3200   30.3690 C.3   149  TYR149      0.1605
     26  C         14.4560   16.9850   30.8510 C.2   149  TYR149      0.2264
     27  O         14.5280   18.2040   30.9600 O.2   149  TYR149     -0.2867
     28  CB        12.7780   16.7920   28.9670 C.3   149  TYR149      0.0534
     29  CG        13.9740   16.9880   28.0950 C.ar  149  TYR149     -0.0201
     30  CD1       14.3640   18.2600   27.7150 C.ar  149  TYR149     -0.0009
     31  CD2       14.8000   15.9160   27.7680 C.ar  149  TYR149     -0.0009
     32  CE1       15.5530   18.4740   27.0440 C.ar  149  TYR149      0.0417
     33  CE2       15.9980   16.1170   27.1020 C.ar  149  TYR149      0.0417
     34  CZ        16.3750   17.4080   26.7450 C.ar  149  TYR149      0.1957
     35  OH        17.5860   17.6540   26.1300 O.3   149  TYR149     -0.2866
     36  N         19.0660   16.5800   30.9190 N.3   151  ASN151     -0.1240
     37  CA        20.3380   15.9840   30.5430 C.3   151  ASN151      0.1653
     38  C         21.0200   15.4590   31.7900 C.2   151  ASN151      0.2266
     39  O         21.7960   14.5040   31.7290 O.2   151  ASN151     -0.2867
     40  CB        21.2170   17.0180   29.8540 C.3   151  ASN151      0.1155
     41  CG        20.6130   17.5090   28.5510 C.2   151  ASN151      0.2627
     42  OD1       20.6880   16.8250   27.5300 O.2   151  ASN151     -0.2716
     43  ND2       20.0070   18.7010   28.5780 N.am  151  ASN151     -0.0877
     44  N         25.5100   29.5070   13.9260 N.3   203  ARG203     -0.1245
     45  CA        24.6240   30.2580   14.7760 C.3   203  ARG203      0.1563
     46  C         24.5470   31.5280   13.9260 C.2   203  ARG203      0.2260
     47  O         25.3130   31.6610   12.9750 O.2   203  ARG203     -0.2867
     48  CB        25.3440   30.5180   16.0970 C.3   203  ARG203      0.0307
     49  CG        24.4550   30.8830   17.2470 C.3   203  ARG203      0.0489
     50  CD        24.9090   30.2050   18.5300 C.3   203  ARG203      0.2205
     51  NE        23.8070   30.2060   19.4780 N.pl3 203  ARG203     -0.0865
     52  CZ        23.8030   29.6030   20.6610 C.cat 203  ARG203      0.5346
     53  NH1       24.8630   28.9250   21.0880 N.pl3 203  ARG203      0.1354
     54  NH2       22.7060   29.6570   21.4070 N.pl3 203  ARG203      0.1354
     55  N         24.7500   14.9640   24.8780 N.3   220  TYR220     -0.1241
     56  CA        24.7910   15.7830   23.6630 C.3   220  TYR220      0.1605
     57  C         26.1070   15.7690   22.8840 C.2   220  TYR220      0.2264
     58  O         26.2690   16.5490   21.9310 O.2   220  TYR220     -0.2867
     59  CB        24.4920   17.2400   24.0510 C.3   220  TYR220      0.0534
     60  CG        25.3380   17.7620   25.2190 C.ar  220  TYR220     -0.0201
     61  CD1       26.4890   18.5240   24.9980 C.ar  220  TYR220     -0.0009
     62  CD2       24.9660   17.5090   26.5450 C.ar  220  TYR220     -0.0009
     63  CE1       27.2500   19.0270   26.0730 C.ar  220  TYR220      0.0417
     64  CE2       25.7130   18.0080   27.6270 C.ar  220  TYR220      0.0417
     65  CZ        26.8490   18.7670   27.3820 C.ar  220  TYR220      0.1957
     66  OH        27.5600   19.2870   28.4470 O.3   220  TYR220     -0.2866
     67  N         14.8260   14.3860   18.4260 N.3   315  THR315     -0.1203
     68  CA        15.3410   15.6260   17.8980 C.3   315  THR315      0.1994
     69  C         16.5890   15.9720   18.7120 C.2   315  THR315      0.2618
     70  O         16.7140   15.5640   19.8730 O.2   315  THR315     -0.2717
     71  CB        14.2550   16.7150   18.0290 C.3   315  THR315      0.1784
     72  OG1       14.5290   17.7850   17.1250 O.3   315  THR315     -0.2211
     73  CG2       14.1540   17.2320   19.4590 C.3   315  THR315      0.0376
     74  N         17.5310   16.6850   18.1100 N.am  316  GLY316     -0.1942
     75  CA        18.7230   17.0330   18.8550 C.3   316  GLY316      0.2014
     76  C         19.4190   18.2760   18.3580 C.2   316  GLY316      0.2640
     77  O         19.5090   18.5040   17.1600 O.2   316  GLY316     -0.2714
     78  N         19.9830   19.0360   19.2860 N.am  317  SER317     -0.1935
     79  CA        20.6760   20.2600   18.9220 C.3   317  SER317      0.2055
     80  C         21.8700   20.5880   19.7960 C.2   317  SER317      0.2644
     81  O         22.0670   20.0440   20.8880 O.2   317  SER317     -0.2714
     82  CB        19.7140   21.4510   18.9660 C.3   317  SER317      0.2130
     83  OG        18.5550   21.2210   18.1860 O.3   317  SER317     -0.2179
     84  N         22.6970   21.4540   19.2400 N.am  318  THR318     -0.1936
     85  CA        23.8580   22.0220   19.8950 C.3   318  THR318      0.2028
     86  C         23.7460   23.4880   19.4380 C.2   318  THR318      0.2642
     87  O         22.8340   23.8370   18.6650 O.2   318  THR318     -0.2714
     88  CB        25.1690   21.4220   19.3670 C.3   318  THR318      0.1808
     89  OG1       25.2380   21.5870   17.9450 O.3   318  THR318     -0.2208
     90  CG2       25.2660   19.9230   19.7230 C.3   318  THR318      0.0379
     91  N         24.6400   24.3390   19.9290 N.am  319  GLY319     -0.1954
     92  CA        24.6250   25.7330   19.5440 C.3   319  GLY319      0.1869
     93  C         24.5930   25.9440   18.0470 C.2   319  GLY319      0.2309
     94  O         23.9040   26.8460   17.5630 O.2   319  GLY319     -0.2863
     95  N         20.8030   25.1390   14.1620 N.3   342  SER342     -0.1217
     96  CA        19.7460   24.6680   15.0490 C.3   342  SER342      0.1889
     97  C         18.4560   25.4540   14.8210 C.2   342  SER342      0.2288
     98  O         18.2260   26.4680   15.4770 O.2   342  SER342     -0.2866
     99  CB        20.1830   24.7880   16.5100 C.3   342  SER342      0.2089
    100  OG        19.1360   24.4270   17.3960 O.3   342  SER342     -0.2183
@<TRIPOS>BOND
     1    47    46    2
     2    44    45    1
     3    46    45    1
     4    95    96    1
     5    45    48    1
     6    97    96    1
     7    97    98    2
     8    96    99    1
     9    48    49    1
    10    99   100    1
    11    72    71    1
    12    77    76    2
    13    49    50    1
    14    94    93    2
    15    68    71    1
    16    68    67    1
    17    68    69    1
    18    89    88    1
    19    71    73    1
    20    93    92    1
    21    74    69   am
    22    74    75    1
    23    83    82    1
    24    76    75    1
    25    76    78   am
    26    50    51    1
    27    87    86    2
    28    69    70    2
    29    79    82    1
    30    79    78    1
    31    79    80    1
    32    84    80   am
    33    84    85    1
    34    88    90    1
    35    88    85    1
    36    86    85    1
    37    86    91   am
    38    51    52    2
    39    92    91    1
    40    80    81    2
    41    52    53    1
    42    52    54    1
    43     1     2    1
    44     3     2    1
    45     3     4    2
    46    58    57    2
    47     2     5    1
    48     5     6    1
    49    57    56    1
    50    56    59    1
    51    56    55    1
    52    59    60    1
    53    61    60   ar
    54    61    63   ar
    55    60    62   ar
    56    63    65   ar
    57    35    34    1
    58    62    64   ar
    59    34    32   ar
    60    34    33   ar
    61    32    30   ar
    62    33    31   ar
    63    65    64   ar
    64    65    66    1
    65    42    41    2
    66    30    29   ar
    67    31    29   ar
    68    29    28    1
    69    41    43   am
    70    41    40    1
    71    23    21   am
    72    28    25    1
    73    13    12    1
    74    14    12    1
    75    22    21    2
    76    21    20    1
    77    40    37    1
    78    12    11    1
    79    25    26    1
    80    25    24    1
    81    37    36    1
    82    37    38    1
    83    26    27    2
    84    20    19    1
    85    10     9    2
    86    11     8    1
    87    39    38    2
    88     9     8    1
    89     9    15   am
    90    19    16    1
    91     8     7    1
    92    16    15    1
    93    16    17    1
    94    17    18    2
