@<TRIPOS>MOLECULE
tmp/2q9oB06.pdb
 101 95 0 0 0
SMALL
GASTEIGER

@<TRIPOS>ATOM
      1  N         23.7560   17.2890   35.0410 N.3    68  ASN68      -0.1240
      2  CA        23.7810   18.6410   35.5650 C.3    68  ASN68       0.1653
      3  C         25.2060   19.1530   35.3240 C.2    68  ASN68       0.2266
      4  O         26.1730   18.6200   35.9030 O.2    68  ASN68      -0.2867
      5  CB        23.4470   18.7600   37.0470 C.3    68  ASN68       0.1155
      6  CG        23.4800   20.2090   37.4950 C.2    68  ASN68       0.2627
      7  OD1       23.7410   20.5320   38.6580 O.2    68  ASN68      -0.2716
      8  ND2       23.2200   21.1230   36.5690 N.am   68  ASN68      -0.0877
      9  N         28.0880   21.5300   35.9160 N.3    70  VAL70      -0.1245
     10  CA        28.5430   22.3570   37.0180 C.3    70  VAL70       0.1561
     11  C         29.9650   22.8540   36.7460 C.2    70  VAL70       0.2260
     12  O         30.8780   22.0890   36.4210 O.2    70  VAL70      -0.2867
     13  CB        28.5250   21.5650   38.3500 C.3    70  VAL70       0.0252
     14  CG1       28.9510   22.4470   39.5040 C.3    70  VAL70       0.0019
     15  CG2       27.1600   20.9840   38.6190 C.3    70  VAL70       0.0019
     16  N         24.6120   24.7390   36.1140 N.3   153  GLN153     -0.1245
     17  CA        24.8410   25.4820   37.3280 C.3   153  GLN153      0.1566
     18  C         26.2580   26.0600   37.2630 C.2   153  GLN153      0.2260
     19  O         27.1920   25.2830   37.4000 O.2   153  GLN153     -0.2867
     20  CB        24.6690   24.6150   38.5900 C.3   153  GLN153      0.0367
     21  CG        24.9190   25.3940   39.8830 C.3   153  GLN153      0.0905
     22  CD        24.5110   24.6090   41.1110 C.2   153  GLN153      0.2608
     23  OE1       23.7040   23.6780   41.0050 O.2   153  GLN153     -0.2717
     24  NE2       25.0630   24.9380   42.2680 N.am  153  GLN153     -0.0878
     25  N         22.7530   26.8540   52.5000 N.3   164  ILE164     -0.1231
     26  CA        22.7690   25.6080   51.7650 C.3   164  ILE164      0.1692
     27  C         22.2630   25.8410   50.3410 C.2   164  ILE164      0.2592
     28  O         21.2180   26.4970   50.2070 O.2   164  ILE164     -0.2718
     29  CB        21.8400   24.5800   52.4630 C.3   164  ILE164      0.0266
     30  CG1       22.3550   24.2310   53.8530 C.3   164  ILE164      0.0019
     31  CG2       21.6170   23.3320   51.6290 C.3   164  ILE164      0.0020
     32  CD1       21.2700   23.6470   54.7580 C.3   164  ILE164      0.0001
     33  N         23.0200   25.3290   49.3900 N.am  165  ASP165     -0.1960
     34  CA        22.5880   25.3430   47.9850 C.3   165  ASP165      0.1840
     35  C         21.9350   23.9900   47.6810 C.2   165  ASP165      0.2622
     36  O         22.6290   22.9590   47.6150 O.2   165  ASP165     -0.2715
     37  CB        23.7790   25.5810   47.0810 C.3   165  ASP165      0.1450
     38  CG        23.4270   25.9370   45.6470 C.2   165  ASP165      0.3671
     39  OD1       22.2910   25.6700   45.2390 O.co2 165  ASP165     -0.2456
     40  OD2       24.3260   26.4920   44.9670 O.co2 165  ASP165     -0.2456
     41  N         20.6300   23.9500   47.5150 N.am  166  LEU166     -0.1963
     42  CA        19.9020   22.7280   47.2680 C.3   166  LEU166      0.1728
     43  C         20.0490   22.2860   45.8200 C.2   166  LEU166      0.2617
     44  O         19.7120   21.1430   45.5000 O.2   166  LEU166     -0.2715
     45  CB        18.4160   22.9320   47.5670 C.3   166  LEU166      0.0311
     46  CG        18.1180   23.1900   49.0480 C.3   166  LEU166      0.0022
     47  CD1       16.7210   23.7780   49.1240 C.3   166  LEU166      0.0001
     48  CD2       18.3200   21.9130   49.8600 C.3   166  LEU166      0.0001
     49  N         20.5490   23.1940   44.9770 N.am  167  GLY167     -0.1940
     50  CA        20.8180   22.8000   43.5970 C.3   167  GLY167      0.2014
     51  C         19.6410   22.9810   42.6710 C.2   167  GLY167      0.2639
     52  O         18.7370   23.7330   43.0090 O.2   167  GLY167     -0.2714
     53  N         19.7040   22.3020   41.5040 N.am  168  VAL168     -0.1963
     54  CA        18.6730   22.5500   40.4970 C.3   168  VAL168      0.1727
     55  C         17.3630   21.8390   40.7920 C.2   168  VAL168      0.2616
     56  O         17.2880   20.8050   41.4460 O.2   168  VAL168     -0.2715
     57  CB        19.2050   22.1520   39.1070 C.3   168  VAL168      0.0290
     58  CG1       20.4250   23.0260   38.8040 C.3   168  VAL168      0.0023
     59  CG2       19.5600   20.6800   39.0160 C.3   168  VAL168      0.0023
     60  N         16.3060   22.4450   40.2830 N.am  169  PHE169     -0.1974
     61  CA        14.9300   22.0090   40.5020 C.3   169  PHE169      0.1639
     62  C         14.1270   22.2970   39.2260 C.2   169  PHE169      0.2290
     63  O         13.2980   23.2090   39.1770 O.2   169  PHE169     -0.2864
     64  CB        14.3110   22.7320   41.6950 C.3   169  PHE169      0.0560
     65  CG        13.2350   22.0180   42.4810 C.ar  169  PHE169     -0.0200
     66  CD1       13.4230   20.7180   42.9280 C.ar  169  PHE169     -0.0042
     67  CD2       12.0380   22.6420   42.8160 C.ar  169  PHE169     -0.0042
     68  CE1       12.5040   20.0320   43.7020 C.ar  169  PHE169     -0.0003
     69  CE2       11.0960   21.9810   43.5940 C.ar  169  PHE169     -0.0003
     70  CZ        11.3200   20.6820   44.0530 C.ar  169  PHE169     -0.0000
     71  N         11.8330   17.9740   39.3070 N.3   200  ASN200     -0.1240
     72  CA        13.1220   17.3180   39.5160 C.3   200  ASN200      0.1653
     73  C         13.0380   15.8630   39.0830 C.2   200  ASN200      0.2266
     74  O         13.5330   14.9450   39.7240 O.2   200  ASN200     -0.2867
     75  CB        13.6160   17.5080   40.9390 C.3   200  ASN200      0.1155
     76  CG        15.1440   17.3950   41.0270 C.2   200  ASN200      0.2627
     77  OD1       15.8030   17.5010   39.9990 O.2   200  ASN200     -0.2716
     78  ND2       15.6680   17.1610   42.2310 N.am  200  ASN200     -0.0877
     79  N         11.0580   15.1890   46.7060 N.3   215  ASN215     -0.1225
     80  CA        11.1190   15.3950   48.1430 C.3   215  ASN215      0.1785
     81  C         12.3850   16.1280   48.5350 C.2   215  ASN215      0.2597
     82  O         13.4440   15.5080   48.4470 O.2   215  ASN215     -0.2718
     83  CB        11.1630   13.9920   48.7680 C.3   215  ASN215      0.1169
     84  CG        11.2280   14.0120   50.2790 C.2   215  ASN215      0.2627
     85  OD1       11.0100   15.0440   50.9080 O.2   215  ASN215     -0.2716
     86  ND2       11.4780   12.8450   50.8500 N.am  215  ASN215     -0.0877
     87  N         12.2320   17.3890   48.9460 N.am  216  VAL216     -0.1980
     88  CA        13.2970   18.2880   49.3060 C.3   216  VAL216      0.1595
     89  C         13.3540   18.3750   50.8240 C.2   216  VAL216      0.2287
     90  O         12.3460   18.6730   51.4440 O.2   216  VAL216     -0.2864
     91  CB        13.0630   19.6570   48.6520 C.3   216  VAL216      0.0276
     92  CG1       14.1830   20.6090   49.0120 C.3   216  VAL216      0.0022
     93  CG2       12.9890   19.4290   47.1320 C.3   216  VAL216      0.0022
     94  N         17.3730   27.6070   46.1630 N.3   226  LEU226     -0.1245
     95  CA        16.6570   26.6640   45.3090 C.3   226  LEU226      0.1561
     96  C         16.6440   27.2180   43.8980 C.2   226  LEU226      0.2260
     97  O         16.2000   28.3580   43.7790 O.2   226  LEU226     -0.2867
     98  CB        15.2220   26.4200   45.8020 C.3   226  LEU226      0.0270
     99  CG        14.4230   25.3870   45.0080 C.3   226  LEU226      0.0019
    100  CD1       14.9300   23.9760   45.2570 C.3   226  LEU226      0.0001
    101  CD2       12.9530   25.4650   45.4040 C.3   226  LEU226      0.0001
@<TRIPOS>BOND
     1     1     2    1
     2     3     2    1
     3     3     4    2
     4     2     5    1
     5     9    10    1
     6    16    17    1
     7    12    11    2
     8     8     6   am
     9    11    10    1
    10    10    13    1
    11     5     6    1
    12    18    17    1
    13    18    19    2
    14    17    20    1
    15     6     7    2
    16    13    15    1
    17    13    14    1
    18    20    21    1
    19    58    57    1
    20    59    57    1
    21    73    72    1
    22    73    74    2
    23    57    54    1
    24    63    62    2
    25    62    61    1
    26    71    72    1
    27    72    75    1
    28    21    22    1
    29    77    76    2
    30    60    61    1
    31    60    55   am
    32    54    55    1
    33    54    53    1
    34    61    64    1
    35    55    56    2
    36    75    76    1
    37    23    22    2
    38    76    78   am
    39    22    24   am
    40    53    51   am
    41    64    65    1
    42    65    67   ar
    43    65    66   ar
    44    51    52    2
    45    51    50    1
    46    67    69   ar
    47    66    68   ar
    48    69    70   ar
    49    50    49    1
    50    68    70   ar
    51    97    96    2
    52    96    95    1
    53    40    38   ar
    54    49    43   am
    55    99   100    1
    56    99   101    1
    57    99    98    1
    58    39    38   ar
    59    95    98    1
    60    95    94    1
    61    44    43    2
    62    38    37    1
    63    43    42    1
    64    79    80    1
    65    37    34    1
    66    93    91    1
    67    42    41    1
    68    42    45    1
    69    41    35   am
    70    45    46    1
    71    36    35    2
    72    35    34    1
    73    34    33    1
    74    80    81    1
    75    80    83    1
    76    82    81    2
    77    81    87   am
    78    91    92    1
    79    91    88    1
    80    83    84    1
    81    87    88    1
    82    46    47    1
    83    46    48    1
    84    88    89    1
    85    33    27   am
    86    28    27    2
    87    84    86   am
    88    84    85    2
    89    27    26    1
    90    89    90    2
    91    31    29    1
    92    26    29    1
    93    26    25    1
    94    29    30    1
    95    30    32    1
