@<TRIPOS>MOLECULE
tmp/2q9oA07.pdb
 93 87 0 0 0
SMALL
GASTEIGER

@<TRIPOS>ATOM
      1  N        -51.8410   25.9200   49.3010 N.3     5  ASN5       -0.1240
      2  CA       -50.3900   26.1140   49.2570 C.3     5  ASN5        0.1653
      3  C        -49.9650   26.9990   50.4170 C.2     5  ASN5        0.2266
      4  O        -50.3190   28.1700   50.4270 O.2     5  ASN5       -0.2867
      5  CB       -50.0350   26.7460   47.9080 C.3     5  ASN5        0.1155
      6  CG       -48.5310   26.8160   47.7230 C.2     5  ASN5        0.2627
      7  OD1      -47.9860   27.9100   47.8890 O.2     5  ASN5       -0.2716
      8  ND2      -47.8820   25.7020   47.3770 N.am    5  ASN5       -0.0877
      9  N        -46.7760   27.7480   53.6500 N.3     7  PRO7       -0.2116
     10  CA       -45.3710   27.5820   53.9930 C.3     7  PRO7        0.1372
     11  C        -44.9790   26.1710   54.3970 C.2     7  PRO7        0.2244
     12  O        -43.8970   25.6800   54.0070 O.2     7  PRO7       -0.2868
     13  CB       -45.1960   28.5590   55.1760 C.3     7  PRO7        0.0268
     14  CG       -46.1870   29.6460   54.8660 C.3     7  PRO7        0.0207
     15  CD       -47.3890   28.9230   54.3200 C.3     7  PRO7        0.0892
     16  N        -45.9590   23.2290   50.7520 N.3    10  ARG10      -0.1245
     17  CA       -45.8550   23.8000   49.4070 C.3    10  ARG10       0.1563
     18  C        -46.1440   22.7850   48.3180 C.2    10  ARG10       0.2260
     19  O        -46.2930   23.1530   47.1450 O.2    10  ARG10      -0.2867
     20  CB       -44.4230   24.3450   49.2390 C.3    10  ARG10       0.0307
     21  CG       -44.1160   25.5370   50.1200 C.3    10  ARG10       0.0489
     22  CD       -44.8300   26.7930   49.6390 C.3    10  ARG10       0.2205
     23  NE       -44.4530   27.9470   50.4860 N.pl3  10  ARG10      -0.0865
     24  CZ       -45.1120   29.0790   50.6130 C.cat  10  ARG10       0.5346
     25  NH1      -46.2480   29.3480   49.9650 N.pl3  10  ARG10       0.1354
     26  NH2      -44.5760   29.9970   51.4440 N.pl3  10  ARG10       0.1354
     27  N        -41.7950   41.7180   35.1160 N.3    68  ASN68      -0.1240
     28  CA       -41.7700   40.3400   35.5960 C.3    68  ASN68       0.1653
     29  C        -43.1610   39.7740   35.3280 C.2    68  ASN68       0.2266
     30  O        -44.1270   40.1580   36.0050 O.2    68  ASN68      -0.2867
     31  CB       -41.4420   40.0440   37.0490 C.3    68  ASN68       0.1155
     32  CG       -41.5510   38.6260   37.5590 C.2    68  ASN68       0.2627
     33  OD1      -41.9000   38.4350   38.7590 O.2    68  ASN68      -0.2716
     34  ND2      -41.2920   37.4990   36.8850 N.am   68  ASN68      -0.0877
     35  N        -46.1720   37.4110   35.8920 N.3    70  VAL70      -0.1245
     36  CA       -46.5520   36.6050   37.0380 C.3    70  VAL70       0.1561
     37  C        -47.9780   36.1320   36.7990 C.2    70  VAL70       0.2260
     38  O        -48.8820   36.9090   36.4860 O.2    70  VAL70      -0.2867
     39  CB       -46.5390   37.3780   38.3800 C.3    70  VAL70       0.0252
     40  CG1      -46.9120   36.4800   39.5480 C.3    70  VAL70       0.0019
     41  CG2      -45.1800   38.0340   38.5960 C.3    70  VAL70       0.0019
     42  N        -42.6710   34.3140   36.1060 N.3   153  GLN153     -0.1245
     43  CA       -42.8170   33.5100   37.3310 C.3   153  GLN153      0.1566
     44  C        -44.2320   32.9340   37.2900 C.2   153  GLN153      0.2260
     45  O        -45.1900   33.6820   37.4020 O.2   153  GLN153     -0.2867
     46  CB       -42.5790   34.3780   38.5670 C.3   153  GLN153      0.0367
     47  CG       -42.8550   33.5910   39.8540 C.3   153  GLN153      0.0905
     48  CD       -42.5110   34.3610   41.1050 C.2   153  GLN153      0.2608
     49  OE1      -41.6370   35.2270   41.0720 O.2   153  GLN153     -0.2717
     50  NE2      -43.1870   34.0280   42.2130 N.am  153  GLN153     -0.0878
     51  N        -40.7170   29.5220   53.6480 N.3   163  ASP163     -0.1225
     52  CA       -41.5720   30.5870   54.1560 C.3   163  ASP163      0.1805
     53  C        -41.7940   31.7600   53.2370 C.2   163  ASP163      0.2598
     54  O        -42.9020   32.3040   53.1810 O.2   163  ASP163     -0.2718
     55  CB       -40.9120   31.1110   55.4690 C.3   163  ASP163      0.1424
     56  CG       -40.6390   29.9120   56.3560 C.2   163  ASP163      0.3668
     57  OD1      -41.6300   29.2770   56.7820 O.co2 163  ASP163     -0.2456
     58  OD2      -39.4900   29.5380   56.6410 O.co2 163  ASP163     -0.2456
     59  N        -40.7590   32.1730   52.5080 N.am  164  ILE164     -0.1966
     60  CA       -40.7570   33.4210   51.7820 C.3   164  ILE164      0.1727
     61  C        -40.2710   33.2000   50.3530 C.2   164  ILE164      0.2616
     62  O        -39.2280   32.5900   50.1860 O.2   164  ILE164     -0.2715
     63  CB       -39.8130   34.4530   52.4550 C.3   164  ILE164      0.0290
     64  CG1      -40.3430   34.9210   53.8150 C.3   164  ILE164      0.0022
     65  CG2      -39.5050   35.6510   51.5820 C.3   164  ILE164      0.0023
     66  CD1      -39.2430   35.4480   54.7030 C.3   164  ILE164      0.0001
     67  N        -41.0220   33.6870   49.3770 N.am  165  ASP165     -0.1957
     68  CA       -40.6080   33.6450   47.9720 C.3   165  ASP165      0.1840
     69  C        -39.9660   34.9840   47.6590 C.2   165  ASP165      0.2622
     70  O        -40.6840   35.9820   47.5440 O.2   165  ASP165     -0.2715
     71  CB       -41.8200   33.3780   47.1010 C.3   165  ASP165      0.1450
     72  CG       -41.4740   33.0160   45.6740 C.2   165  ASP165      0.3671
     73  OD1      -40.3370   33.2770   45.2540 O.co2 165  ASP165     -0.2456
     74  OD2      -42.3540   32.4530   44.9670 O.co2 165  ASP165     -0.2456
     75  N        -38.6390   35.0420   47.5550 N.am  166  LEU166     -0.1963
     76  CA       -37.8930   36.2410   47.2470 C.3   166  LEU166      0.1728
     77  C        -38.0780   36.6910   45.8050 C.2   166  LEU166      0.2617
     78  O        -37.7130   37.8240   45.4490 O.2   166  LEU166     -0.2715
     79  CB       -36.4130   35.9710   47.5440 C.3   166  LEU166      0.0311
     80  CG       -36.0930   35.7180   49.0250 C.3   166  LEU166      0.0022
     81  CD1      -34.7070   35.1370   49.1200 C.3   166  LEU166      0.0001
     82  CD2      -36.2210   36.9950   49.8610 C.3   166  LEU166      0.0001
     83  N        -38.6520   35.8300   44.9660 N.am  167  GLY167     -0.1940
     84  CA       -38.8670   36.2440   43.5690 C.3   167  GLY167      0.2014
     85  C        -37.6310   36.0360   42.7130 C.2   167  GLY167      0.2638
     86  O        -36.7300   35.2860   43.0550 O.2   167  GLY167     -0.2714
     87  N        -37.6610   36.7070   41.5600 N.am  168  VAL168     -0.1977
     88  CA       -36.6900   36.4490   40.5060 C.3   168  VAL168      0.1596
     89  C        -35.3690   37.1790   40.8040 C.2   168  VAL168      0.2287
     90  O        -35.3420   38.2380   41.4490 O.2   168  VAL168     -0.2864
     91  CB       -37.2270   36.8720   39.1370 C.3   168  VAL168      0.0276
     92  CG1      -38.4300   35.9830   38.8240 C.3   168  VAL168      0.0022
     93  CG2      -37.6170   38.3270   39.1050 C.3   168  VAL168      0.0022
@<TRIPOS>BOND
     1    27    28    1
     2    29    28    1
     3    29    30    2
     4    28    31    1
     5    35    36    1
     6    42    43    1
     7    38    37    2
     8    37    36    1
     9    34    32   am
    10    36    39    1
    11    31    32    1
    12    44    43    1
    13    44    45    2
    14    43    46    1
    15    32    33    2
    16    39    41    1
    17    39    40    1
    18    46    47    1
    19    92    91    1
    20    93    91    1
    21    91    88    1
    22    47    48    1
    23    88    89    1
    24    88    87    1
    25    89    90    2
    26    49    48    2
    27    48    50   am
    28    87    85   am
    29    85    86    2
    30    85    84    1
    31    84    83    1
    32    83    77   am
    33    74    72   ar
    34    73    72   ar
    35    78    77    2
    36    72    71    1
    37    77    76    1
    38    71    68    1
    39    19    18    2
    40    76    79    1
    41    76    75    1
    42     8     6   am
    43    70    69    2
    44    79    80    1
    45    75    69   am
    46    69    68    1
    47     6     7    2
    48     6     5    1
    49     5     2    1
    50    68    67    1
    51    18    17    1
    52    80    81    1
    53    80    82    1
    54    20    17    1
    55    20    21    1
    56     2     1    1
    57     2     3    1
    58    67    61   am
    59    17    16    1
    60    22    21    1
    61    22    23    1
    62    25    24    1
    63    62    61    2
    64    61    60    1
    65     3     4    2
    66    23    24    2
    67    24    26    1
    68    65    63    1
    69    60    63    1
    70    60    59    1
    71    63    64    1
    72    59    53   am
    73    54    53    2
    74    53    52    1
    75    51    52    1
    76     9    10    1
    77     9    15    1
    78    64    66    1
    79    10    11    1
    80    10    13    1
    81    12    11    2
    82    52    55    1
    83    15    14    1
    84    14    13    1
    85    55    56    1
    86    56    58   ar
    87    56    57   ar
