@<TRIPOS>MOLECULE
tmp/2q9rA00.pdb
 85 81 0 0 0
SMALL
GASTEIGER

@<TRIPOS>ATOM
      1  N         43.4660   30.3850  -10.6910 N.3    29  ASN29      -0.1240
      2  CA        44.8210   30.5520  -10.2780 C.3    29  ASN29       0.1653
      3  C         45.7720   30.1140  -11.3980 C.2    29  ASN29       0.2266
      4  O         46.7570   30.7840  -11.6890 O.2    29  ASN29      -0.2867
      5  CB        45.0890   29.7430   -9.0120 C.3    29  ASN29       0.1155
      6  CG        44.2730   30.2040   -7.8060 C.2    29  ASN29       0.2627
      7  OD1       43.8570   31.3740   -7.6820 O.2    29  ASN29      -0.2716
      8  ND2       44.0350   29.2630   -6.8940 N.am   29  ASN29      -0.0877
      9  N         45.4490   32.5820  -14.4470 N.3    32  LEU32      -0.1231
     10  CA        46.1090   33.8650  -14.2610 C.3    32  LEU32       0.1693
     11  C         47.6370   33.7050  -14.4080 C.2    32  LEU32       0.2592
     12  O         48.2830   34.4380  -15.1340 O.2    32  LEU32      -0.2718
     13  CB        45.7510   34.4890  -12.9030 C.3    32  LEU32       0.0284
     14  CG        46.2980   35.9420  -12.6950 C.3    32  LEU32       0.0019
     15  CD1       45.7810   36.8770  -13.7880 C.3    32  LEU32       0.0001
     16  CD2       46.0110   36.4690  -11.2750 C.3    32  LEU32       0.0001
     17  N         48.2060   32.7400  -13.6980 N.am   33  PHE33      -0.1976
     18  CA        49.6250   32.4810  -13.7840 C.3    33  PHE33       0.1639
     19  C         50.0830   32.2570  -15.2360 C.2    33  PHE33       0.2290
     20  O         51.1200   32.7680  -15.6760 O.2    33  PHE33      -0.2864
     21  CB        49.9970   31.2810  -12.9210 C.3    33  PHE33       0.0560
     22  CG        51.3910   30.7740  -13.1810 C.ar   33  PHE33      -0.0200
     23  CD1       52.4790   31.4940  -12.7370 C.ar   33  PHE33      -0.0042
     24  CD2       51.6120   29.6030  -13.8860 C.ar   33  PHE33      -0.0042
     25  CE1       53.7410   31.0490  -12.9570 C.ar   33  PHE33      -0.0003
     26  CE2       52.9190   29.1520  -14.1220 C.ar   33  PHE33      -0.0003
     27  CZ        53.9700   29.8700  -13.6520 C.ar   33  PHE33      -0.0000
     28  N         50.0090   35.4910  -17.2350 N.3    36  VAL36      -0.1245
     29  CA        50.9970   36.4430  -16.7910 C.3    36  VAL36       0.1561
     30  C         52.4240   35.9470  -17.0210 C.2    36  VAL36       0.2260
     31  O         53.2790   36.6920  -17.4270 O.2    36  VAL36      -0.2867
     32  CB        50.7850   36.7910  -15.2790 C.3    36  VAL36       0.0252
     33  CG1       51.9640   37.6450  -14.7070 C.3    36  VAL36       0.0019
     34  CG2       49.4170   37.4940  -15.1150 C.3    36  VAL36       0.0019
     35  N         55.0680   34.8230   -7.5490 N.3    85  TYR85      -0.1227
     36  CA        54.4700   33.9790   -6.5170 C.3    85  TYR85       0.1736
     37  C         53.4480   32.9840   -7.1340 C.2    85  TYR85       0.2596
     38  O         53.2770   31.8640   -6.6280 O.2    85  TYR85      -0.2718
     39  CB        53.7850   34.8090   -5.3830 C.3    85  TYR85       0.0548
     40  CG        53.2240   33.8880   -4.3220 C.ar   85  TYR85      -0.0200
     41  CD1       54.0540   33.3120   -3.3660 C.ar   85  TYR85      -0.0009
     42  CD2       51.8910   33.5070   -4.3480 C.ar   85  TYR85      -0.0009
     43  CE1       53.5690   32.4200   -2.4240 C.ar   85  TYR85       0.0417
     44  CE2       51.3890   32.6090   -3.4200 C.ar   85  TYR85       0.0417
     45  CZ        52.2330   32.0440   -2.4740 C.ar   85  TYR85       0.1957
     46  OH        51.7180   31.1600   -1.5480 O.3    85  TYR85      -0.2866
     47  N         52.7670   33.4160   -8.1980 N.am   86  GLY86      -0.1957
     48  CA        51.6920   32.6370   -8.8290 C.3    86  GLY86       0.1869
     49  C         52.0570   31.2210   -9.2150 C.2    86  GLY86       0.2309
     50  O         51.1770   30.3420   -9.3300 O.2    86  GLY86      -0.2863
     51  N         50.3130   28.8160   -6.3430 N.3    89  PRO89      -0.2116
     52  CA        48.9270   28.3810   -6.5470 C.3    89  PRO89       0.1372
     53  C         48.6340   27.6610   -7.8780 C.2    89  PRO89       0.2244
     54  O         47.7640   26.7720   -7.9150 O.2    89  PRO89      -0.2868
     55  CB        48.0970   29.6800   -6.4040 C.3    89  PRO89       0.0268
     56  CG        49.0600   30.8100   -6.3260 C.3    89  PRO89       0.0207
     57  CD        50.4420   30.2610   -6.1030 C.3    89  PRO89       0.0892
     58  N         49.4650   31.6590    0.8380 N.3   125  TYR125     -0.1241
     59  CA        49.2310   32.9910    0.2910 C.3   125  TYR125      0.1605
     60  C         49.2960   34.0440    1.3810 C.2   125  TYR125      0.2264
     61  O         50.0360   35.0080    1.2530 O.2   125  TYR125     -0.2867
     62  CB        47.8780   33.0480   -0.4290 C.3   125  TYR125      0.0534
     63  CG        47.5730   34.3890   -1.0530 C.ar  125  TYR125     -0.0201
     64  CD1       48.1950   34.7720   -2.2180 C.ar  125  TYR125     -0.0009
     65  CD2       46.6650   35.2750   -0.4770 C.ar  125  TYR125     -0.0009
     66  CE1       47.9410   35.9910   -2.7860 C.ar  125  TYR125      0.0417
     67  CE2       46.3950   36.5150   -1.0530 C.ar  125  TYR125      0.0417
     68  CZ        47.0380   36.8460   -2.2200 C.ar  125  TYR125      0.1957
     69  OH        46.8370   38.0340   -2.8530 O.3   125  TYR125     -0.2866
     70  N         41.8890   31.7040   -3.4870 N.3   188  ILE188     -0.1245
     71  CA        42.6870   32.8570   -3.0540 C.3   188  ILE188      0.1561
     72  C         42.2180   34.1750   -3.7030 C.2   188  ILE188      0.2260
     73  O         42.9690   35.1810   -3.7480 O.2   188  ILE188     -0.2867
     74  CB        44.2120   32.6350   -3.1510 C.3   188  ILE188      0.0252
     75  CG1       44.6710   32.2390   -4.5570 C.3   188  ILE188      0.0019
     76  CG2       44.6860   31.6130   -2.1400 C.3   188  ILE188      0.0019
     77  CD1       46.1780   32.5710   -4.7600 C.3   188  ILE188      0.0001
     78  N         41.1300   34.9190   -6.8650 N.3   190  ILE190     -0.1245
     79  CA        41.4440   35.2150   -8.2590 C.3   190  ILE190      0.1561
     80  C         40.2610   35.0040   -9.1780 C.2   190  ILE190      0.2260
     81  O         39.5640   33.9530   -9.1670 O.2   190  ILE190     -0.2867
     82  CB        42.6500   34.3660   -8.7520 C.3   190  ILE190      0.0252
     83  CG1       43.8750   34.6760   -7.8710 C.3   190  ILE190      0.0019
     84  CG2       42.8790   34.6500  -10.2270 C.3   190  ILE190      0.0019
     85  CD1       44.2730   36.1710   -7.8860 C.3   190  ILE190      0.0001
@<TRIPOS>BOND
     1    31    30    2
     2    28    29    1
     3    30    29    1
     4    29    32    1
     5    20    19    2
     6    32    34    1
     7    32    33    1
     8    19    18    1
     9    12    11    2
    10     9    10    1
    11    11    10    1
    12    11    17   am
    13    10    13    1
    14    26    24   ar
    15    26    27   ar
    16    24    22   ar
    17    15    14    1
    18    18    17    1
    19    18    21    1
    20    27    25   ar
    21    22    21    1
    22    22    23   ar
    23    25    23   ar
    24    13    14    1
    25    14    16    1
    26     4     3    2
    27     3     2    1
    28     1     2    1
    29     2     5    1
    30    84    82    1
    31    50    49    2
    32    49    48    1
    33    80    81    2
    34    80    79    1
    35     5     6    1
    36    48    47    1
    37    82    79    1
    38    82    83    1
    39    79    78    1
    40    47    37   am
    41    54    53    2
    42    85    83    1
    43    53    52    1
    44     6     7    2
    45     6     8   am
    46    35    36    1
    47    37    38    2
    48    37    36    1
    49    52    55    1
    50    52    51    1
    51    36    39    1
    52    55    56    1
    53    51    57    1
    54    56    57    1
    55    39    40    1
    56    77    75    1
    57    75    74    1
    58    42    40   ar
    59    42    44   ar
    60    40    41   ar
    61    73    72    2
    62    72    71    1
    63    70    71    1
    64    44    45   ar
    65    41    43   ar
    66    74    71    1
    67    74    76    1
    68    69    68    1
    69    66    68   ar
    70    66    64   ar
    71    45    43   ar
    72    45    46    1
    73    68    67   ar
    74    64    63   ar
    75    67    65   ar
    76    63    65   ar
    77    63    62    1
    78    62    59    1
    79    59    58    1
    80    59    60    1
    81    61    60    2
