@<TRIPOS>MOLECULE
tmp/2q9uA00.pdb
 133 135 0 0 0
SMALL
GASTEIGER

@<TRIPOS>ATOM
      1  N         -8.3870    9.3960   24.1060 N.3   262  SER262     -0.1202
      2  CA        -9.7650    9.8800   24.1970 C.3   262  SER262      0.2020
      3  C        -10.5870    8.9170   23.3390 C.2   262  SER262      0.2619
      4  O        -10.0780    8.3940   22.3760 O.2   262  SER262     -0.2717
      5  CB        -9.8380   11.3290   23.6510 C.3   262  SER262      0.2103
      6  OG       -11.1350   11.8970   23.8180 O.3   262  SER262     -0.2182
      7  N        -11.8500    8.6930   23.6870 N.am  263  MET263     -0.1965
      8  CA       -12.7380    7.8230   22.9140 C.3   263  MET263      0.1736
      9  C        -13.7440    8.6000   22.0480 C.2   263  MET263      0.2616
     10  O        -13.9660    8.2560   20.8710 O.2   263  MET263     -0.2715
     11  CB       -13.4670    6.8850   23.8700 C.3   263  MET263      0.0427
     12  CG       -12.5020    5.9140   24.5330 C.3   263  MET263      0.0599
     13  SD       -13.3070    4.7420   25.6240 S.3   263  MET263     -0.1393
     14  CE       -13.8090    5.8170   26.9580 C.3   263  MET263      0.0692
     15  N        -14.3680    9.6230   22.6320 N.am  264  TYR264     -0.1960
     16  CA       -15.3150   10.4710   21.8850 C.3   264  TYR264      0.1771
     17  C        -14.8710   11.9410   21.8140 C.2   264  TYR264      0.2620
     18  O        -15.6340   12.8080   21.3890 O.2   264  TYR264     -0.2715
     19  CB       -16.7400   10.3490   22.4380 C.3   264  TYR264      0.0574
     20  CG       -17.4240    9.0510   22.0570 C.ar  264  TYR264     -0.0198
     21  CD1      -18.1430    8.9420   20.8430 C.ar  264  TYR264     -0.0009
     22  CD2      -17.3690    7.9390   22.9000 C.ar  264  TYR264     -0.0009
     23  CE1      -18.7870    7.7300   20.4680 C.ar  264  TYR264      0.0417
     24  CE2      -18.0060    6.7220   22.5420 C.ar  264  TYR264      0.0417
     25  CZ       -18.7070    6.6340   21.3160 C.ar  264  TYR264      0.1957
     26  OH       -19.3320    5.4440   20.9650 O.3   264  TYR264     -0.2866
     27  N        -13.6380   12.2210   22.2190 N.am  265  GLY265     -0.1940
     28  CA       -13.0300   13.5120   21.8480 C.3   265  GLY265      0.2014
     29  C        -13.2290   14.6800   22.8050 C.2   265  GLY265      0.2640
     30  O        -12.6740   15.7510   22.5740 O.2   265  GLY265     -0.2714
     31  N        -13.9950   14.5020   23.8790 N.am  266  THR266     -0.1936
     32  CA       -14.1770   15.6250   24.8230 C.3   266  THR266      0.2028
     33  C        -12.9270   15.8840   25.6750 C.2   266  THR266      0.2642
     34  O        -12.5890   17.0490   25.9460 O.2   266  THR266     -0.2714
     35  CB       -15.4440   15.5110   25.7130 C.3   266  THR266      0.1808
     36  OG1      -15.3080   14.4210   26.6290 O.3   266  THR266     -0.2208
     37  CG2      -16.7140   15.3170   24.8310 C.3   266  THR266      0.0379
     38  N        -12.2500   14.8090   26.0960 N.am  267  THR267     -0.1950
     39  CA       -10.9610   14.9530   26.7960 C.3   267  THR267      0.1897
     40  C         -9.9370   15.6220   25.8570 C.2   267  THR267      0.2313
     41  O         -9.1140   16.4550   26.2820 O.2   267  THR267     -0.2863
     42  CB       -10.4000   13.6130   27.3440 C.3   267  THR267      0.1794
     43  OG1      -11.3640   12.9830   28.1960 O.3   267  THR267     -0.2208
     44  CG2       -9.1300   13.8610   28.1670 C.3   267  THR267      0.0378
     45  N        -10.1550    9.5860   29.5300 N.3   313  PRO313     -0.2102
     46  CA       -11.4550    9.2550   30.1240 C.3   313  PRO313      0.1504
     47  C        -11.3800    8.0020   30.9690 C.2   313  PRO313      0.2576
     48  O        -10.4170    7.2130   30.8670 O.2   313  PRO313     -0.2718
     49  CB       -12.3650    9.0340   28.8900 C.3   313  PRO313      0.0282
     50  CG       -11.4470    8.6360   27.7980 C.3   313  PRO313      0.0208
     51  CD       -10.1710    9.4650   28.0630 C.3   313  PRO313      0.0893
     52  N        -12.3760    7.8240   31.8400 N.am  314  THR314     -0.1939
     53  CA       -12.4960    6.5870   32.5910 C.3   314  THR314      0.2028
     54  C        -13.0040    5.4900   31.6490 C.2   314  THR314      0.2642
     55  O        -14.0450    5.6320   30.9890 O.2   314  THR314     -0.2714
     56  CB       -13.4010    6.7500   33.8430 C.3   314  THR314      0.1808
     57  OG1      -12.7680    7.6510   34.7720 O.3   314  THR314     -0.2208
     58  CG2      -13.5940    5.4030   34.5530 C.3   314  THR314      0.0379
     59  N        -12.2250    4.4180   31.5580 N.am  315  LEU315     -0.1963
     60  CA       -12.6250    3.2410   30.8090 C.3   315  LEU315      0.1728
     61  C        -12.5890    2.0650   31.7740 C.2   315  LEU315      0.2616
     62  O        -11.5110    1.7310   32.2980 O.2   315  LEU315     -0.2715
     63  CB       -11.6620    3.0080   29.6370 C.3   315  LEU315      0.0311
     64  CG       -11.9150    1.7780   28.7330 C.3   315  LEU315      0.0022
     65  CD1      -13.3210    1.8000   28.0910 C.3   315  LEU315      0.0001
     66  CD2      -10.8200    1.6830   27.6430 C.3   315  LEU315      0.0001
     67  N        -13.7610    1.4750   32.0300 N.am  316  ASN316     -0.1958
     68  CA       -13.8940    0.2950   32.8960 C.3   316  ASN316      0.1819
     69  C        -13.1910    0.5100   34.2230 C.2   316  ASN316      0.2621
     70  O        -12.3520   -0.3050   34.6240 O.2   316  ASN316     -0.2715
     71  CB       -13.3530   -0.9650   32.1970 C.3   316  ASN316      0.1195
     72  CG       -14.0020   -1.1980   30.8280 C.2   316  ASN316      0.2630
     73  OD1      -15.1900   -0.9580   30.6580 O.2   316  ASN316     -0.2716
     74  ND2      -13.2120   -1.6370   29.8580 N.am  316  ASN316     -0.0877
     75  N        -13.5230    1.6330   34.8730 N.am  317  ASN317     -0.1972
     76  CA       -13.0720    1.9550   36.2340 C.3   317  ASN317      0.1688
     77  C        -11.5940    2.2800   36.3670 C.2   317  ASN317      0.2292
     78  O        -11.0600    2.2860   37.4750 O.2   317  ASN317     -0.2864
     79  CB       -13.4520    0.8390   37.2160 C.3   317  ASN317      0.1181
     80  CG       -14.9540    0.6050   37.2800 C.2   317  ASN317      0.2629
     81  OD1      -15.7190    1.5410   37.5100 O.2   317  ASN317     -0.2716
     82  ND2      -15.3800   -0.6500   37.0580 N.am  317  ASN317     -0.0877
     83  N        -12.4910   13.1460   31.2230 N.3   346  ALA346     -0.1231
     84  CA       -13.9410   12.9410   31.3150 C.3   346  ALA346      0.1694
     85  C        -14.2900   11.6650   32.0640 C.2   346  ALA346      0.2592
     86  O        -13.4740   10.7650   32.2050 O.2   346  ALA346     -0.2718
     87  CB       -14.5370   12.9180   29.8980 C.3   346  ALA346      0.0304
     88  N        -15.5200   11.5700   32.5550 N.am  347  PHE347     -0.1962
     89  CA       -16.0350   10.2940   33.0400 C.3   347  PHE347      0.1771
     90  C        -17.5470   10.2880   32.8210 C.2   347  PHE347      0.2620
     91  O        -18.1480   11.3350   32.5440 O.2   347  PHE347     -0.2715
     92  CB       -15.6770   10.0590   34.5200 C.3   347  PHE347      0.0574
     93  CG       -16.3060   11.0560   35.4680 C.ar  347  PHE347     -0.0200
     94  CD1      -15.6910   12.2680   35.7340 C.ar  347  PHE347     -0.0042
     95  CD2      -17.5350   10.7780   36.0750 C.ar  347  PHE347     -0.0042
     96  CE1      -16.2810   13.2080   36.6240 C.ar  347  PHE347     -0.0003
     97  CE2      -18.1380   11.7040   36.9590 C.ar  347  PHE347     -0.0003
     98  CZ       -17.5100   12.9170   37.2250 C.ar  347  PHE347     -0.0000
     99  N        -18.1360    9.1080   32.9330 N.am  348  GLY348     -0.1940
    100  CA       -19.5610    8.9230   32.7080 C.3   348  GLY348      0.2014
    101  C        -20.3330    8.8550   34.0050 C.2   348  GLY348      0.2639
    102  O        -21.3660    9.5210   34.1450 O.2   348  GLY348     -0.2714
    103  N        -19.8690    8.0380   34.9410 N.am  349  TRP349     -0.1959
    104  CA       -20.6010    7.8440   36.1960 C.3   349  TRP349      0.1771
    105  C        -19.7200    7.7940   37.4240 C.2   349  TRP349      0.2620
    106  O        -20.1490    8.2000   38.5030 O.2   349  TRP349     -0.2715
    107  CB       -21.5120    6.6090   36.1450 C.3   349  TRP349      0.0590
    108  CG       -20.8650    5.3600   35.6320 C.ar  349  TRP349      0.0006
    109  CD1      -20.3060    4.3610   36.3650 C.ar  349  TRP349      0.0946
    110  CD2      -20.7030    4.9950   34.2560 C.ar  349  TRP349      0.0152
    111  NE1      -19.8140    3.3810   35.5290 N.ar  349  TRP349     -0.2442
    112  CE2      -20.0490    3.7530   34.2280 C.ar  349  TRP349      0.0810
    113  CE3      -21.0520    5.6100   33.0420 C.ar  349  TRP349      0.0012
    114  CZ2      -19.7290    3.0980   33.0270 C.ar  349  TRP349      0.0191
    115  CZ3      -20.7340    4.9630   31.8480 C.ar  349  TRP349      0.0001
    116  CH2      -20.0770    3.7160   31.8560 C.ar  349  TRP349      0.0015
    117  N        -18.4810    7.3350   37.2640 N.am  350  SER350     -0.1950
    118  CA       -17.5670    7.2240   38.3890 C.3   350  SER350      0.1924
    119  C        -16.1620    7.6320   37.9540 C.2   350  SER350      0.2314
    120  O        -15.5790    7.0190   37.0740 O.2   350  SER350     -0.2863
    121  CB       -17.5880    5.8100   38.9820 C.3   350  SER350      0.2116
    122  OG       -16.6040    5.6530   40.0140 O.3   350  SER350     -0.2180
    123  N        -19.2370   13.4450   30.9600 N.3   379  PHE379     -0.1241
    124  CA       -19.6330   13.3230   29.5700 C.3   379  PHE379      0.1605
    125  C        -19.1400   14.3720   28.5930 C.2   379  PHE379      0.2264
    126  O        -18.5130   14.0370   27.6420 O.2   379  PHE379     -0.2867
    127  CB       -21.1090   13.0420   29.4190 C.3   379  PHE379      0.0534
    128  CG       -21.4610   11.6310   29.6490 C.ar  379  PHE379     -0.0203
    129  CD1      -20.8930   10.6400   28.8890 C.ar  379  PHE379     -0.0042
    130  CD2      -22.3140   11.2850   30.6520 C.ar  379  PHE379     -0.0042
    131  CE1      -21.1700    9.3690   29.1230 C.ar  379  PHE379     -0.0003
    132  CE2      -22.6130    9.9720   30.8680 C.ar  379  PHE379     -0.0003
    133  CZ       -22.0390    9.0180   30.1070 C.ar  379  PHE379     -0.0000
@<TRIPOS>BOND
     1    23    21   ar
     2    23    25   ar
     3    21    20   ar
     4    10     9    2
     5    26    25    1
     6    25    24   ar
     7    18    17    2
     8    17    16    1
     9    17    27   am
    10    28    27    1
    11    28    29    1
    12    16    19    1
    13    16    15    1
    14     9    15   am
    15     9     8    1
    16    20    19    1
    17    20    22   ar
    18     4     3    2
    19    24    22   ar
    20    30    29    2
    21    29    31   am
    22     8     7    1
    23     8    11    1
    24     3     7   am
    25     3     2    1
    26     5     6    1
    27     5     2    1
    28    11    12    1
    29    31    32    1
    30     1     2    1
    31    12    13    1
    32    32    33    1
    33    32    35    1
    34    37    35    1
    35    13    14    1
    36    33    34    2
    37    33    38   am
    38    35    36    1
    39    40    41    2
    40    40    39    1
    41    38    39    1
    42    39    42    1
    43    42    44    1
    44    42    43    1
    45   126   125    2
    46    66    64    1
    47    50    51    1
    48    50    49    1
    49    51    45    1
    50    65    64    1
    51   125   124    1
    52    64    63    1
    53   129   131   ar
    54   129   128   ar
    55    49    46    1
    56   131   133   ar
    57   127   124    1
    58   127   128    1
    59    45    46    1
    60   124   123    1
    61    63    60    1
    62   128   130   ar
    63    74    72   am
    64    87    84    1
    65   133   132   ar
    66    46    47    1
    67   130   132   ar
    68    73    72    2
    69    60    59    1
    70    60    61    1
    71    72    71    1
    72    48    47    2
    73    47    52   am
    74    55    54    2
    75    83    84    1
    76    84    85    1
    77    59    54   am
    78    54    53    1
    79    61    67   am
    80    61    62    2
    81    52    53    1
    82   115   116   ar
    83   115   113   ar
    84   116   114   ar
    85    67    68    1
    86    85    86    2
    87    85    88   am
    88    71    68    1
    89    91    90    2
    90    88    89    1
    91    53    56    1
    92   100    99    1
    93   100   101    1
    94    90    99   am
    95    90    89    1
    96    68    69    1
    97   114   112   ar
    98    89    92    1
    99   113   110   ar
   100    56    58    1
   101    56    57    1
   102   101   102    2
   103   101   103   am
   104    69    70    2
   105    69    75   am
   106   112   110   ar
   107   112   111   ar
   108   110   108   ar
   109    92    93    1
   110    75    76    1
   111   103   104    1
   112    93    94   ar
   113    93    95   ar
   114   111   109   ar
   115   108   107    1
   116   108   109   ar
   117    94    96   ar
   118    95    97   ar
   119   107   104    1
   120   104   105    1
   121    76    77    1
   122    76    79    1
   123    77    78    2
   124    96    98   ar
   125    97    98   ar
   126    82    80   am
   127   120   119    2
   128    79    80    1
   129   117   105   am
   130   117   118    1
   131    80    81    2
   132   105   106    2
   133   119   118    1
   134   118   121    1
   135   121   122    1
