@<TRIPOS>MOLECULE
tmp/2q9yB01.pdb
 172 164 0 0 0
SMALL
GASTEIGER

@<TRIPOS>ATOM
      1  N        -40.9360  -11.3310    9.7200 N.3    68  ILE68      -0.1245
      2  CA       -41.4310  -11.4460   11.0780 C.3    68  ILE68       0.1561
      3  C        -41.0250  -12.7720   11.7050 C.2    68  ILE68       0.2260
      4  O        -40.4770  -12.7860   12.8190 O.2    68  ILE68      -0.2867
      5  CB       -42.9800  -11.2460   11.1250 C.3    68  ILE68       0.0252
      6  CG1      -43.2980   -9.7970   10.7580 C.3    68  ILE68       0.0019
      7  CG2      -43.5420  -11.5650   12.5100 C.3    68  ILE68       0.0019
      8  CD1      -42.4680   -8.7790   11.5340 C.3    68  ILE68       0.0001
      9  N        -37.6740  -12.4760   12.6970 N.3    71  MET71      -0.1245
     10  CA       -37.4710  -11.6410   13.8780 C.3    71  MET71       0.1570
     11  C        -37.8420  -12.3600   15.1770 C.2    71  MET71       0.2261
     12  O        -37.0690  -12.3630   16.1450 O.2    71  MET71      -0.2867
     13  CB       -38.2920  -10.3570   13.7560 C.3    71  MET71       0.0387
     14  CG       -38.1910   -9.4540   14.9740 C.3    71  MET71       0.0595
     15  SD       -39.3830   -8.0960   14.9450 S.3    71  MET71      -0.1393
     16  CE       -40.9410   -8.9960   14.7140 C.3    71  MET71       0.0692
     17  N        -47.1850  -10.1450   15.1630 N.3    91  TYR91      -0.1241
     18  CA       -46.2500   -9.1760   14.6250 C.3    91  TYR91       0.1605
     19  C        -46.3370   -9.0450   13.1070 C.2    91  TYR91       0.2264
     20  O        -45.9250   -8.0260   12.5390 O.2    91  TYR91      -0.2867
     21  CB       -44.8340   -9.5220   15.0690 C.3    91  TYR91       0.0534
     22  CG       -44.6050   -9.2630   16.5340 C.ar   91  TYR91      -0.0201
     23  CD1      -44.7890   -7.9940   17.0670 C.ar   91  TYR91      -0.0009
     24  CD2      -44.1960  -10.2800   17.3910 C.ar   91  TYR91      -0.0009
     25  CE1      -44.5670   -7.7360   18.4240 C.ar   91  TYR91       0.0417
     26  CE2      -43.9730  -10.0380   18.7480 C.ar   91  TYR91       0.0417
     27  CZ       -44.1610   -8.7620   19.2600 C.ar   91  TYR91       0.1957
     28  OH       -43.9630   -8.5140   20.6040 O.3    91  TYR91      -0.2866
     29  N        -49.0600   -6.3740   12.6680 N.3    94  THR94      -0.1203
     30  CA       -48.5630   -5.0330   12.9220 C.3    94  THR94       0.1994
     31  C        -47.6550   -4.5220   11.8140 C.2    94  THR94       0.2617
     32  O        -47.6200   -3.3150   11.5540 O.2    94  THR94      -0.2717
     33  CB       -47.8040   -4.9570   14.2510 C.3    94  THR94       0.1784
     34  OG1      -46.8690   -6.0330   14.3170 O.3    94  THR94      -0.2211
     35  CG2      -48.7640   -5.0230   15.4240 C.3    94  THR94       0.0376
     36  N        -46.9290   -5.4240   11.1570 N.am   95  LEU95      -0.1979
     37  CA       -46.0260   -5.0050   10.0870 C.3    95  LEU95       0.1596
     38  C        -46.7920   -4.5950    8.8430 C.2    95  LEU95       0.2287
     39  O        -46.3400   -3.7520    8.0760 O.2    95  LEU95      -0.2864
     40  CB       -45.0350   -6.1160    9.7380 C.3    95  LEU95       0.0297
     41  CG       -43.9500   -5.6540    8.7620 C.3    95  LEU95       0.0022
     42  CD1      -43.3460   -4.3850    9.3190 C.3    95  LEU95       0.0001
     43  CD2      -42.8780   -6.7300    8.5470 C.3    95  LEU95       0.0001
     44  N        -47.9220   -1.0770    9.5880 N.3    98  ASP98      -0.1239
     45  CA       -46.7630   -0.1790    9.6260 C.3    98  ASP98       0.1674
     46  C        -46.3810    0.3370    8.2530 C.2    98  ASP98       0.2266
     47  O        -45.9010    1.4640    8.1120 O.2    98  ASP98      -0.2867
     48  CB       -45.5490   -0.8910   10.2420 C.3    98  ASP98       0.1410
     49  CG       -44.3320    0.0250   10.3850 C.2    98  ASP98       0.3668
     50  OD1      -43.2230   -0.4980   10.6300 O.co2  98  ASP98      -0.2456
     51  OD2      -44.4750    1.2640   10.2640 O.co2  98  ASP98      -0.2456
     52  N        -49.4490    1.5540   19.2920 N.3   155  PHE155     -0.1241
     53  CA       -48.8650    1.3610   17.9770 C.3   155  PHE155      0.1605
     54  C        -49.8830    1.7030   16.8940 C.2   155  PHE155      0.2264
     55  O        -49.5270    2.2000   15.8300 O.2   155  PHE155     -0.2867
     56  CB       -48.4090   -0.0910   17.8410 C.3   155  PHE155      0.0534
     57  CG       -48.0100   -0.4670   16.4550 C.ar  155  PHE155     -0.0203
     58  CD1      -46.8290    0.0060   15.9100 C.ar  155  PHE155     -0.0042
     59  CD2      -48.8480   -1.2550   15.6720 C.ar  155  PHE155     -0.0042
     60  CE1      -46.4860   -0.2880   14.6110 C.ar  155  PHE155     -0.0003
     61  CE2      -48.5130   -1.5570   14.3610 C.ar  155  PHE155     -0.0003
     62  CZ       -47.3280   -1.0710   13.8320 C.ar  155  PHE155     -0.0000
     63  N        -42.0050    8.2190   18.4920 N.3   180  ARG180     -0.1245
     64  CA       -41.2630    6.9630   18.3940 C.3   180  ARG180      0.1563
     65  C        -41.7270    5.9210   19.3990 C.2   180  ARG180      0.2260
     66  O        -41.8170    4.7280   19.0870 O.2   180  ARG180     -0.2867
     67  CB       -39.7590    7.2040   18.5680 C.3   180  ARG180      0.0307
     68  CG       -38.9180    5.9340   18.3800 C.3   180  ARG180      0.0489
     69  CD       -39.4240    5.0710   17.2270 C.3   180  ARG180      0.2205
     70  NE       -38.4620    4.0230   16.9220 N.pl3 180  ARG180     -0.0865
     71  CZ       -38.7040    2.9770   16.1390 C.cat 180  ARG180      0.5346
     72  NH1      -39.8940    2.8260   15.5730 N.pl3 180  ARG180      0.1354
     73  NH2      -37.7470    2.0840   15.9170 N.pl3 180  ARG180      0.1354
     74  N        -45.0360    4.1840   18.4010 N.3   183  ASN183     -0.1225
     75  CA       -45.0790    3.1920   17.3300 C.3   183  ASN183      0.1785
     76  C        -44.0060    2.1170   17.4000 C.2   183  ASN183      0.2598
     77  O        -43.9000    1.2830   16.4910 O.2   183  ASN183     -0.2718
     78  CB       -45.0000    3.8810   15.9720 C.3   183  ASN183      0.1169
     79  CG       -43.7870    4.7810   15.8510 C.2   183  ASN183      0.2627
     80  OD1      -42.6540    4.3830   16.1610 O.2   183  ASN183     -0.2716
     81  ND2      -44.0170    6.0070   15.3930 N.am  183  ASN183     -0.0877
     82  N        -43.2240    2.1350   18.4750 N.am  184  GLY184     -0.1942
     83  CA       -42.1680    1.1540   18.6310 C.3   184  GLY184      0.2014
     84  C        -42.5310   -0.1800   19.2750 C.2   184  GLY184      0.2638
     85  O        -41.6440   -1.0170   19.4670 O.2   184  GLY184     -0.2714
     86  N        -43.8070   -0.3910   19.6070 N.am  185  LEU185     -0.1977
     87  CA       -44.2540   -1.6400   20.2410 C.3   185  LEU185      0.1596
     88  C        -43.3540   -2.0630   21.4030 C.2   185  LEU185      0.2287
     89  O        -43.2070   -3.2560   21.6870 O.2   185  LEU185     -0.2864
     90  CB       -44.3110   -2.7610   19.2080 C.3   185  LEU185      0.0297
     91  CG       -45.4250   -2.5890   18.1820 C.3   185  LEU185      0.0022
     92  CD1      -45.1420   -3.4170   16.9450 C.3   185  LEU185      0.0001
     93  CD2      -46.7530   -2.9680   18.8240 C.3   185  LEU185      0.0001
     94  N        -43.0620   -5.8920   22.9350 N.3   189  VAL189     -0.1245
     95  CA       -41.9080   -6.7580   22.7380 C.3   189  VAL189      0.1561
     96  C        -41.3650   -7.1880   24.1080 C.2   189  VAL189      0.2260
     97  O        -41.1660   -8.3780   24.3830 O.2   189  VAL189     -0.2867
     98  CB       -40.7850   -6.0170   21.9570 C.3   189  VAL189      0.0252
     99  CG1      -39.4760   -6.7610   22.0900 C.3   189  VAL189      0.0019
    100  CG2      -41.1560   -5.8930   20.5030 C.3   189  VAL189      0.0019
    101  N        -34.4190   -1.5400   22.3490 N.3   219  MET219     -0.1230
    102  CA       -35.0430   -2.1550   21.1910 C.3   219  MET219      0.1702
    103  C        -35.3230   -1.1700   20.0490 C.2   219  MET219      0.2592
    104  O        -34.9380   -1.4120   18.9050 O.2   219  MET219     -0.2718
    105  CB       -36.3340   -2.8520   21.6470 C.3   219  MET219      0.0401
    106  CG       -37.0320   -3.6960   20.6070 C.3   219  MET219      0.0596
    107  SD       -38.2160   -2.7300   19.6900 S.3   219  MET219     -0.1393
    108  CE       -39.4250   -2.3760   21.0010 C.3   219  MET219      0.0692
    109  N        -35.9660   -0.0510   20.3580 N.am  220  VAL220     -0.1980
    110  CA       -36.3070    0.9190   19.3240 C.3   220  VAL220      0.1595
    111  C        -35.1600    1.7310   18.7280 C.2   220  VAL220      0.2287
    112  O        -35.1500    1.9840   17.5240 O.2   220  VAL220     -0.2864
    113  CB       -37.3840    1.9030   19.8240 C.3   220  VAL220      0.0276
    114  CG1      -38.6740    1.1550   20.1040 C.3   220  VAL220      0.0022
    115  CG2      -36.8930    2.6190   21.0640 C.3   220  VAL220      0.0022
    116  N        -33.0880   -0.1840   16.2990 N.3   223  ASN223     -0.1240
    117  CA       -33.7300   -0.2640   14.9980 C.3   223  ASN223      0.1653
    118  C        -33.6220    1.0820   14.3000 C.2   223  ASN223      0.2266
    119  O        -33.3910    1.1480   13.0940 O.2   223  ASN223     -0.2867
    120  CB       -35.2000   -0.6460   15.1220 C.3   223  ASN223      0.1155
    121  CG       -35.9610   -0.4350   13.8210 C.2   223  ASN223      0.2627
    122  OD1      -36.3700    0.6850   13.4970 O.2   223  ASN223     -0.2716
    123  ND2      -36.1390   -1.5090   13.0590 N.am  223  ASN223     -0.0877
    124  N        -31.4760  -10.1570   18.0120 N.3   293  TYR293     -0.1241
    125  CA       -32.0940   -8.9870   17.4000 C.3   293  TYR293      0.1605
    126  C        -31.1700   -8.3460   16.3560 C.2   293  TYR293      0.2264
    127  O        -31.6170   -7.9970   15.2630 O.2   293  TYR293     -0.2867
    128  CB       -32.4620   -7.9750   18.4950 C.3   293  TYR293      0.0534
    129  CG       -33.3370   -6.8160   18.0580 C.ar  293  TYR293     -0.0201
    130  CD1      -34.5980   -7.0330   17.4960 C.ar  293  TYR293     -0.0009
    131  CD2      -32.9100   -5.4970   18.2330 C.ar  293  TYR293     -0.0009
    132  CE1      -35.4120   -5.9640   17.1180 C.ar  293  TYR293      0.0417
    133  CE2      -33.7150   -4.4220   17.8620 C.ar  293  TYR293      0.0417
    134  CZ       -34.9640   -4.6610   17.3070 C.ar  293  TYR293      0.1957
    135  OH       -35.7580   -3.5940   16.9610 O.3   293  TYR293     -0.2866
    136  N        -30.6750  -10.5140   13.1220 N.3   296  TRP296     -0.1241
    137  CA       -31.7950  -10.3610   12.1950 C.3   296  TRP296      0.1605
    138  C        -31.6920   -9.0850   11.3580 C.2   296  TRP296      0.2264
    139  O        -32.0290   -9.0850   10.1700 O.2   296  TRP296     -0.2867
    140  CB       -33.0990  -10.3720   12.9920 C.3   296  TRP296      0.0550
    141  CG       -34.3590  -10.0950   12.2140 C.ar  296  TRP296      0.0003
    142  CD1      -34.9640  -10.9030   11.2810 C.ar  296  TRP296      0.0946
    143  CD2      -35.2120   -8.9580   12.3730 C.ar  296  TRP296      0.0152
    144  NE1      -36.1460  -10.3360   10.8620 N.ar  296  TRP296     -0.2442
    145  CE2      -36.3210   -9.1430   11.5160 C.ar  296  TRP296      0.0810
    146  CE3      -35.1480   -7.7990   13.1620 C.ar  296  TRP296      0.0012
    147  CZ2      -37.3590   -8.2110   11.4310 C.ar  296  TRP296      0.0191
    148  CZ3      -36.1760   -6.8770   13.0780 C.ar  296  TRP296      0.0001
    149  CH2      -37.2700   -7.0890   12.2180 C.ar  296  TRP296      0.0015
    150  N        -35.5690   -6.7790    4.2980 N.3   302  ARG302     -0.1231
    151  CA       -36.1700   -5.5010    4.6710 C.3   302  ARG302      0.1694
    152  C        -35.1520   -4.3940    4.9730 C.2   302  ARG302      0.2592
    153  O        -35.2820   -3.2730    4.4790 O.2   302  ARG302     -0.2718
    154  CB       -37.0840   -5.6910    5.8840 C.3   302  ARG302      0.0321
    155  CG       -37.9120   -4.4650    6.2110 C.3   302  ARG302      0.0489
    156  CD       -38.4580   -4.5090    7.6250 C.3   302  ARG302      0.2205
    157  NE       -39.2770   -3.3360    7.9240 N.pl3 302  ARG302     -0.0865
    158  CZ       -40.4660   -3.0930    7.3790 C.cat 302  ARG302      0.5346
    159  NH1      -40.9840   -3.9460    6.5030 N.pl3 302  ARG302      0.1354
    160  NH2      -41.1390   -1.9960    7.7070 N.pl3 302  ARG302      0.1354
    161  N        -34.1420   -4.7060    5.7770 N.am  303  TYR303     -0.1976
    162  CA       -33.1330   -3.7160    6.1390 C.3   303  TYR303      0.1639
    163  C        -31.9670   -3.6710    5.1760 C.2   303  TYR303      0.2290
    164  O        -31.0340   -2.8850    5.3480 O.2   303  TYR303     -0.2864
    165  CB       -32.6410   -3.9810    7.5570 C.3   303  TYR303      0.0560
    166  CG       -33.7830   -3.9430    8.5250 C.ar  303  TYR303     -0.0198
    167  CD1      -34.5720   -2.8020    8.6330 C.ar  303  TYR303     -0.0009
    168  CD2      -34.1410   -5.0680    9.2630 C.ar  303  TYR303     -0.0009
    169  CE1      -35.6970   -2.7790    9.4410 C.ar  303  TYR303      0.0417
    170  CE2      -35.2670   -5.0580   10.0790 C.ar  303  TYR303      0.0417
    171  CZ       -36.0440   -3.9090   10.1590 C.ar  303  TYR303      0.1957
    172  OH       -37.1830   -3.8860   10.9300 O.3   303  TYR303     -0.2866
@<TRIPOS>BOND
     1   150   151    1
     2   153   152    2
     3   151   152    1
     4   151   154    1
     5   152   161   am
     6   163   164    2
     7   163   162    1
     8   161   162    1
     9   154   155    1
    10   162   165    1
    11   155   156    1
    12   159   158    1
    13   158   160    1
    14   158   157    2
    15   165   166    1
    16   156   157    1
    17    39    38    2
    18    47    46    2
    19    46    45    1
    20   166   167   ar
    21   166   168   ar
    22    43    41    1
    23   167   169   ar
    24    41    42    1
    25    41    40    1
    26    38    37    1
    27   168   170   ar
    28   169   171   ar
    29    44    45    1
    30    45    48    1
    31     1     2    1
    32    40    37    1
    33   170   171   ar
    34    37    36    1
    35   171   172    1
    36   139   138    2
    37    48    49    1
    38    51    49   ar
    39    49    50   ar
    40     6     5    1
    41     6     8    1
    42   144   142   ar
    43   144   145   ar
    44     2     5    1
    45     2     3    1
    46     5     7    1
    47    36    31   am
    48   142   141   ar
    49   138   137    1
    50   147   145   ar
    51   147   149   ar
    52   145   143   ar
    53    32    31    2
    54     3     4    2
    55    31    30    1
    56   137   140    1
    57   137   136    1
    58   141   143   ar
    59   141   140    1
    60   149   148   ar
    61   143   146   ar
    62    20    19    2
    63    29    30    1
    64     9    10    1
    65    30    33    1
    66   123   121   am
    67   148   146   ar
    68   119   118    2
    69    19    18    1
    70   122   121    2
    71    13    10    1
    72    13    14    1
    73   121   120    1
    74    62    61   ar
    75    62    60   ar
    76    10    11    1
    77    33    34    1
    78    33    35    1
    79   118   117    1
    80    61    59   ar
    81    60    58   ar
    82    18    21    1
    83    18    17    1
    84    16    15    1
    85    15    14    1
    86   117   120    1
    87   117   116    1
    88    21    22    1
    89    11    12    2
    90   127   126    2
    91    81    79   am
    92    72    71    1
    93    59    57   ar
    94    55    54    2
    95    79    78    1
    96    79    80    2
    97    58    57   ar
    98    73    71    1
    99    78    75    1
   100    71    70    2
   101   126   125    1
   102    57    56    1
   103    77    76    2
   104    22    23   ar
   105    22    24   ar
   106    54    53    1
   107    70    69    1
   108    92    91    1
   109   135   134    1
   110    23    25   ar
   111   132   134   ar
   112   132   130   ar
   113    69    68    1
   114   134   133   ar
   115    75    76    1
   116    75    74    1
   117    24    26   ar
   118    76    82   am
   119   125   124    1
   120   125   128    1
   121   130   129   ar
   122   112   111    2
   123    56    53    1
   124   133   131   ar
   125    53    52    1
   126   129   131   ar
   127   129   128    1
   128    91    93    1
   129    91    90    1
   130    68    67    1
   131    64    63    1
   132    64    67    1
   133    64    65    1
   134    25    27   ar
   135    82    83    1
   136    83    84    1
   137   111   110    1
   138    26    27   ar
   139   104   103    2
   140    66    65    2
   141    90    87    1
   142    27    28    1
   143    84    85    2
   144    84    86   am
   145   110   113    1
   146   110   109    1
   147    86    87    1
   148   107   106    1
   149   107   108    1
   150   113   114    1
   151   113   115    1
   152   103   109   am
   153   103   102    1
   154    87    88    1
   155   100    98    1
   156   106   105    1
   157   102   105    1
   158   102   101    1
   159    88    89    2
   160    98    99    1
   161    98    95    1
   162    95    94    1
   163    95    96    1
   164    96    97    2
