@<TRIPOS>MOLECULE
tmp/2qa6B01.pdb
 145 133 0 0 0
SMALL
GASTEIGER

@<TRIPOS>ATOM
      1  N        -41.5730   -8.4730   22.2550 N.3    38  MET38      -0.1245
      2  CA       -41.0730   -7.1690   21.8140 C.3    38  MET38       0.1570
      3  C        -41.3970   -6.0840   22.8280 C.2    38  MET38       0.2261
      4  O        -40.6750   -5.0680   22.9450 O.2    38  MET38      -0.2867
      5  CB       -41.6440   -6.7910   20.4450 C.3    38  MET38       0.0387
      6  CG       -40.9630   -7.4660   19.2500 C.3    38  MET38       0.0595
      7  SD       -39.1900   -7.1430   19.1840 S.3    38  MET38      -0.1393
      8  CE       -39.1350   -5.3470   19.1090 C.3    38  MET38       0.0692
      9  N        -38.5300   -6.2880   25.3720 N.3    41  LEU41      -0.1231
     10  CA       -37.2250   -5.7500   24.9480 C.3    41  LEU41       0.1693
     11  C        -37.2220   -4.2440   24.7730 C.2    41  LEU41       0.2592
     12  O        -36.2000   -3.6310   25.0130 O.2    41  LEU41      -0.2718
     13  CB       -36.7760   -6.3270   23.6400 C.3    41  LEU41       0.0284
     14  CG       -36.5810   -7.8120   23.6050 C.3    41  LEU41       0.0019
     15  CD1      -36.2690   -8.2110   22.1600 C.3    41  LEU41       0.0001
     16  CD2      -35.4660   -8.2080   24.5580 C.3    41  LEU41       0.0001
     17  N        -38.3450   -3.6720   24.3240 N.am   42  THR42      -0.1953
     18  CA       -38.4670   -2.1810   24.0960 C.3    42  THR42       0.1897
     19  C        -38.7540   -1.4230   25.3850 C.2    42  THR42       0.2313
     20  O        -38.4410   -0.2580   25.4990 O.2    42  THR42      -0.2863
     21  CB       -39.5400   -1.8200   23.0340 C.3    42  THR42       0.1794
     22  OG1      -40.7990   -2.3550   23.4280 O.3    42  THR42      -0.2208
     23  CG2      -39.1670   -2.4230   21.7020 C.3    42  THR42       0.0378
     24  N        -37.2860   -2.5140   28.1820 N.3    44  LEU44      -0.1231
     25  CA       -35.8820   -2.6130   28.5970 C.3    44  LEU44       0.1693
     26  C        -35.0020   -1.5810   27.8950 C.2    44  LEU44       0.2591
     27  O        -34.2560   -0.8770   28.5290 O.2    44  LEU44      -0.2718
     28  CB       -35.3450   -4.0230   28.3400 C.3    44  LEU44       0.0284
     29  CG       -33.8820   -4.2850   28.7080 C.3    44  LEU44       0.0019
     30  CD1      -33.6650   -4.1520   30.2140 C.3    44  LEU44       0.0001
     31  CD2      -33.4030   -5.6530   28.2250 C.3    44  LEU44       0.0001
     32  N        -35.1200   -1.4670   26.5900 N.am   45  ALA45      -0.1980
     33  CA       -34.3090   -0.5170   25.8660 C.3    45  ALA45       0.1597
     34  C        -34.5610    0.9000   26.3640 C.2    45  ALA45       0.2287
     35  O        -33.6300    1.7020   26.5290 O.2    45  ALA45      -0.2864
     36  CB       -34.5750   -0.6090   24.3880 C.3    45  ALA45       0.0319
     37  N        -32.9720    1.4220   29.6140 N.3    48  GLU48      -0.1245
     38  CA       -31.5370    1.4360   29.3810 C.3    48  GLU48       0.1567
     39  C        -31.1380    2.7560   28.7460 C.2    48  GLU48       0.2260
     40  O        -30.0790    3.2590   29.0530 O.2    48  GLU48      -0.2867
     41  CB       -31.0860    0.2570   28.5270 C.3    48  GLU48       0.0388
     42  CG       -31.1570   -1.0680   29.2600 C.3    48  GLU48       0.1160
     43  CD       -30.2730   -2.1780   28.6680 C.2    48  GLU48       0.3649
     44  OE1      -30.7030   -2.8680   27.6920 O.co2  48  GLU48      -0.2457
     45  OE2      -29.1510   -2.3850   29.2280 O.co2  48  GLU48      -0.2457
     46  N        -28.2560    2.7120   19.5290 N.3    79  LEU79      -0.1245
     47  CA       -28.5070    1.2780   19.4080 C.3    79  LEU79       0.1561
     48  C        -27.2230    0.5000   19.3830 C.2    79  LEU79       0.2260
     49  O        -27.2140   -0.6020   19.8570 O.2    79  LEU79      -0.2867
     50  CB       -29.3940    0.9050   18.2270 C.3    79  LEU79       0.0270
     51  CG       -29.8510   -0.5670   18.2030 C.3    79  LEU79       0.0019
     52  CD1      -30.5960   -1.0290   19.4720 C.3    79  LEU79       0.0001
     53  CD2      -30.7160   -0.8180   16.9490 C.3    79  LEU79       0.0001
     54  N        -26.3130    0.1510   22.9330 N.3    82  LEU82      -0.1231
     55  CA       -27.0890   -0.8940   23.5990 C.3    82  LEU82       0.1693
     56  C        -26.5920   -2.2900   23.1110 C.2    82  LEU82       0.2591
     57  O        -26.3680   -3.2240   23.8900 O.2    82  LEU82      -0.2718
     58  CB       -28.5620   -0.7450   23.2940 C.3    82  LEU82       0.0284
     59  CG       -29.3460    0.4240   23.9070 C.3    82  LEU82       0.0019
     60  CD1      -30.8360    0.1850   23.6600 C.3    82  LEU82       0.0001
     61  CD2      -29.0550    0.7010   25.3990 C.3    82  LEU82       0.0001
     62  N        -26.3900   -2.4160   21.8060 N.am   83  MET83      -0.1979
     63  CA       -25.8730   -3.6580   21.2670 C.3    83  MET83       0.1605
     64  C        -24.4700   -4.0950   21.7830 C.2    83  MET83       0.2287
     65  O        -24.2300   -5.2800   21.9660 O.2    83  MET83      -0.2864
     66  CB       -25.8780   -3.5650   19.7610 C.3    83  MET83       0.0413
     67  CG       -27.2730   -3.6280   19.2110 C.3    83  MET83       0.0598
     68  SD       -27.1750   -3.7310   17.4480 S.3    83  MET83      -0.1393
     69  CE       -28.8500   -4.3110   17.0700 C.3    83  MET83       0.0692
     70  N        -24.8860   -5.3260   25.3320 N.3    86  LEU86      -0.1245
     71  CA       -25.4960   -6.6560   25.2810 C.3    86  LEU86       0.1561
     72  C        -24.5070   -7.7650   24.9730 C.2    86  LEU86       0.2260
     73  O        -24.4930   -8.8440   25.5940 O.2    86  LEU86      -0.2867
     74  CB       -26.5520   -6.6440   24.1900 C.3    86  LEU86       0.0270
     75  CG       -27.3950   -7.9080   24.1010 C.3    86  LEU86       0.0019
     76  CD1      -28.1360   -8.0120   25.3800 C.3    86  LEU86       0.0001
     77  CD2      -28.3360   -7.8640   22.8900 C.3    86  LEU86       0.0001
     78  N        -22.2450   -8.3110   27.8730 N.3    89  ARG89      -0.1245
     79  CA       -22.8750   -9.1450   28.9310 C.3    89  ARG89       0.1563
     80  C        -23.1050  -10.5880   28.5460 C.2    89  ARG89       0.2260
     81  O        -23.1990  -11.4310   29.3920 O.2    89  ARG89      -0.2867
     82  CB       -24.2570   -8.6280   29.3350 C.3    89  ARG89       0.0307
     83  CG       -24.3870   -7.1440   29.5040 C.3    89  ARG89       0.0489
     84  CD       -25.6560   -6.7980   30.2040 C.3    89  ARG89       0.2205
     85  NE       -26.8270   -6.9050   29.3530 N.pl3  89  ARG89      -0.0865
     86  CZ       -27.3060   -5.9260   28.6080 C.cat  89  ARG89       0.5346
     87  NH1      -26.6980   -4.7400   28.5400 N.pl3  89  ARG89       0.1354
     88  NH2      -28.4090   -6.1410   27.9110 N.pl3  89  ARG89       0.1354
     89  N        -30.1380  -10.1850   27.6520 N.3    99  PHE99      -0.1241
     90  CA       -30.7970   -8.9080   27.6260 C.3    99  PHE99       0.1605
     91  C        -30.8720   -8.2780   29.0050 C.2    99  PHE99       0.2264
     92  O        -30.7080   -7.0360   29.1540 O.2    99  PHE99      -0.2867
     93  CB       -32.1850   -9.0520   27.0080 C.3    99  PHE99       0.0534
     94  CG       -32.1370   -9.1610   25.5330 C.ar   99  PHE99      -0.0203
     95  CD1      -31.8980   -8.0330   24.7540 C.ar   99  PHE99      -0.0042
     96  CD2      -32.2270  -10.4050   24.9160 C.ar   99  PHE99      -0.0042
     97  CE1      -31.7830   -8.1390   23.3590 C.ar   99  PHE99      -0.0003
     98  CE2      -32.1320  -10.5130   23.5290 C.ar   99  PHE99      -0.0003
     99  CZ       -31.9120   -9.3690   22.7490 C.ar   99  PHE99      -0.0000
    100  N        -35.9620  -11.2300   13.4310 N.3   116  MET116     -0.1245
    101  CA       -35.0470  -11.1020   14.5540 C.3   116  MET116      0.1570
    102  C        -33.9110  -12.0670   14.4660 C.2   116  MET116      0.2261
    103  O        -32.8360  -11.7380   14.8890 O.2   116  MET116     -0.2867
    104  CB       -35.7810  -11.3670   15.8600 C.3   116  MET116      0.0387
    105  CG       -34.9790  -10.9830   17.1000 C.3   116  MET116      0.0595
    106  SD       -35.0980   -9.2290   17.5370 S.3   116  MET116     -0.1393
    107  CE       -34.2900   -9.3040   19.1380 C.3   116  MET116      0.0692
    108  N        -30.7310  -10.9380   13.2070 N.3   119  ILE119     -0.1245
    109  CA       -30.0250   -9.9500   14.0270 C.3   119  ILE119      0.1561
    110  C        -29.3990  -10.5870   15.2470 C.2   119  ILE119      0.2260
    111  O        -28.2440  -10.3370   15.5910 O.2   119  ILE119     -0.2867
    112  CB       -30.9820   -8.7970   14.4360 C.3   119  ILE119      0.0252
    113  CG1      -31.3650   -8.0390   13.1640 C.3   119  ILE119      0.0019
    114  CG2      -30.3480   -7.8780   15.4880 C.3   119  ILE119      0.0019
    115  CD1      -32.3160   -6.9200   13.3680 C.3   119  ILE119      0.0001
    116  N        -25.5730  -10.8660   16.6350 N.3   123  LEU123     -0.1245
    117  CA       -25.2270  -10.4710   17.9840 C.3   123  LEU123      0.1561
    118  C        -24.4790  -11.5940   18.6680 C.2   123  LEU123      0.2260
    119  O        -23.5410  -11.3100   19.3860 O.2   123  LEU123     -0.2867
    120  CB       -26.4680  -10.0500   18.7810 C.3   123  LEU123      0.0270
    121  CG       -27.0820   -8.6750   18.4870 C.3   123  LEU123      0.0019
    122  CD1      -28.4430   -8.5360   19.1400 C.3   123  LEU123      0.0001
    123  CD2      -26.1800   -7.5360   18.9020 C.3   123  LEU123      0.0001
    124  N        -30.9310   -3.5090   12.9640 N.3   213  GLY213     -0.1225
    125  CA       -31.8760   -3.5000   14.0650 C.3   213  GLY213      0.1811
    126  C        -32.7900   -2.3020   14.0780 C.2   213  GLY213      0.2280
    127  O        -33.9290   -2.4000   14.4600 O.2   213  GLY213     -0.2866
    128  N        -35.2050   -3.0960   11.5820 N.3   216  HIS216     -0.1226
    129  CA       -36.0660   -4.1320   12.1370 C.3   216  HIS216      0.1752
    130  C        -37.1060   -3.5660   13.0690 C.2   216  HIS216      0.2595
    131  O        -38.2740   -3.8900   12.9350 O.2   216  HIS216     -0.2718
    132  CB       -35.2620   -5.1730   12.8840 C.3   216  HIS216      0.0759
    133  CG       -36.1140   -6.2040   13.5280 C.ar  216  HIS216      0.0818
    134  ND1      -36.1590   -6.3830   14.8910 N.ar  216  HIS216     -0.2268
    135  CD2      -36.9920   -7.0870   12.9960 C.ar  216  HIS216      0.1154
    136  CE1      -37.0100   -7.3600   15.1650 C.ar  216  HIS216      0.1986
    137  NE2      -37.5410   -7.7900   14.0340 N.ar  216  HIS216     -0.2212
    138  N        -36.6630   -2.7530   14.0310 N.am  217  LEU217     -0.1980
    139  CA       -37.5570   -2.0190   14.9290 C.3   217  LEU217      0.1596
    140  C        -38.5830   -1.2240   14.1750 C.2   217  LEU217      0.2287
    141  O        -39.7390   -1.1610   14.5850 O.2   217  LEU217     -0.2864
    142  CB       -36.7840   -1.0220   15.8070 C.3   217  LEU217      0.0297
    143  CG       -36.4360   -1.3390   17.2710 C.3   217  LEU217      0.0022
    144  CD1      -36.4970   -2.8490   17.6600 C.3   217  LEU217      0.0001
    145  CD2      -35.0420   -0.7620   17.4900 C.3   217  LEU217      0.0001
@<TRIPOS>BOND
     1   128   129    1
     2   129   132    1
     3   129   130    1
     4   132   133    1
     5   131   130    2
     6   124   125    1
     7   135   133   ar
     8   135   137   ar
     9   130   138   am
    10   113   115    1
    11   113   112    1
    12   108   109    1
    13   100   101    1
    14   133   134   ar
    15   109   112    1
    16   109   110    1
    17   138   139    1
    18   137   136   ar
    19   125   126    1
    20   126   127    2
    21   140   141    2
    22   140   139    1
    23   112   114    1
    24   102   101    1
    25   102   103    2
    26   101   104    1
    27   134   136   ar
    28   139   142    1
    29   110   111    2
    30   142   143    1
    31   104   105    1
    32   116   117    1
    33    53    51    1
    34    69    68    1
    35   105   106    1
    36   143   145    1
    37   143   144    1
    38    68    67    1
    39   106   107    1
    40   117   118    1
    41   117   120    1
    42    51    50    1
    43    51    52    1
    44    50    47    1
    45   121   120    1
    46   121   123    1
    47   121   122    1
    48   118   119    2
    49     8     7    1
    50     7     6    1
    51    67    66    1
    52     6     5    1
    53    48    47    1
    54    48    49    2
    55    47    46    1
    56    66    63    1
    57     5     2    1
    58    63    64    1
    59    63    62    1
    60    23    21    1
    61    64    65    2
    62    62    56   am
    63     2     1    1
    64     2     3    1
    65    15    14    1
    66    99    97   ar
    67    99    98   ar
    68     3     4    2
    69    77    75    1
    70    54    55    1
    71    21    22    1
    72    21    18    1
    73    56    55    1
    74    56    57    2
    75    58    55    1
    76    58    59    1
    77    97    95   ar
    78    98    96   ar
    79    14    13    1
    80    14    16    1
    81    13    10    1
    82    60    59    1
    83    59    61    1
    84    18    17    1
    85    18    19    1
    86    75    74    1
    87    75    76    1
    88    74    71    1
    89    17    11   am
    90    36    33    1
    91    95    94   ar
    92    11    10    1
    93    11    12    2
    94    96    94   ar
    95    10     9    1
    96    72    71    1
    97    72    73    2
    98    71    70    1
    99    19    20    2
   100    94    93    1
   101    33    34    1
   102    33    32    1
   103    34    35    2
   104    32    26   am
   105    93    90    1
   106    90    89    1
   107    90    91    1
   108    44    43   ar
   109    78    79    1
   110    26    27    2
   111    26    25    1
   112    88    86    1
   113    24    25    1
   114    31    29    1
   115    28    25    1
   116    28    29    1
   117    41    42    1
   118    41    38    1
   119    87    86    1
   120    80    79    1
   121    80    81    2
   122    86    85    2
   123    43    45   ar
   124    43    42    1
   125    29    30    1
   126    39    40    2
   127    39    38    1
   128    79    82    1
   129    91    92    2
   130    82    83    1
   131    85    84    1
   132    38    37    1
   133    83    84    1
