@<TRIPOS>MOLECULE
tmp/2qa9A00.pdb
 166 165 0 0 0
SMALL
GASTEIGER

@<TRIPOS>ATOM
      1  N         11.6070   -8.8270  -24.7220 N.3    13  ARG13      -0.1231
      2  CA        10.9770   -8.5740  -23.4270 C.3    13  ARG13       0.1694
      3  C          9.6050   -9.2820  -23.3810 C.2    13  ARG13       0.2592
      4  O          8.8260   -9.1590  -24.3160 O.2    13  ARG13      -0.2718
      5  CB        10.8250   -7.0400  -23.2300 C.3    13  ARG13       0.0321
      6  CG         9.9710   -6.7090  -21.9960 C.3    13  ARG13       0.0489
      7  CD         9.8960   -5.1990  -21.6480 C.3    13  ARG13       0.2205
      8  NE         9.4150   -4.4650  -22.7970 N.pl3  13  ARG13      -0.0865
      9  CZ         8.1450   -4.2090  -23.0740 C.cat  13  ARG13       0.5346
     10  NH1        7.1090   -4.6440  -22.3760 N.pl3  13  ARG13       0.1354
     11  NH2        7.9300   -3.5030  -24.2120 N.pl3  13  ARG13       0.1354
     12  N          9.3020   -9.8690  -22.2150 N.am   14  CYS14      -0.1970
     13  CA         7.9970  -10.4180  -21.9230 C.3    14  CYS14       0.1712
     14  C          7.6400   -9.8760  -20.5220 C.2    14  CYS14       0.2296
     15  O          8.2660   -8.9270  -20.0230 O.2    14  CYS14      -0.2864
     16  CB         7.9820  -12.0010  -21.9900 C.3    14  CYS14       0.0983
     17  SG         8.2370  -12.6360  -23.6620 S.3    14  CYS14      -0.0798
     18  N          5.7940  -19.2540  -25.1930 N.3    33  HIS33      -0.1226
     19  CA         6.4030  -18.7400  -26.3700 C.3    33  HIS33       0.1752
     20  C          7.4970  -17.7780  -26.0410 C.2    33  HIS33       0.2596
     21  O          8.1870  -17.3420  -26.9160 O.2    33  HIS33      -0.2718
     22  CB         5.3100  -18.1470  -27.2830 C.3    33  HIS33       0.0759
     23  CG         4.7270  -16.8440  -26.8660 C.ar   33  HIS33       0.0818
     24  ND1        3.4450  -16.6790  -26.3750 N.ar   33  HIS33      -0.2268
     25  CD2        5.2300  -15.6010  -27.0160 C.ar   33  HIS33       0.1154
     26  CE1        3.2170  -15.3910  -26.1910 C.ar   33  HIS33       0.1986
     27  NE2        4.2920  -14.7220  -26.5640 N.ar   33  HIS33      -0.2212
     28  N          7.5410  -17.3950  -24.7620 N.am   34  CYS34      -0.1970
     29  CA         8.7110  -16.6130  -24.2680 C.3    34  CYS34       0.1712
     30  C          9.8430  -17.4800  -23.8240 C.2    34  CYS34       0.2296
     31  O         11.0040  -17.2320  -24.1390 O.2    34  CYS34      -0.2864
     32  CB         8.2760  -15.7090  -23.1020 C.3    34  CYS34       0.0983
     33  SG         7.0910  -14.4140  -23.6810 S.3    34  CYS34      -0.0798
     34  N          5.0760  -24.7720  -25.4690 N.3    59  PHE59      -0.1241
     35  CA         4.5060  -23.9750  -26.5350 C.3    59  PHE59       0.1605
     36  C          4.9700  -24.4890  -27.9140 C.2    59  PHE59       0.2264
     37  O          6.1620  -24.8120  -27.9890 O.2    59  PHE59      -0.2867
     38  CB         4.9780  -22.5190  -26.4450 C.3    59  PHE59       0.0534
     39  CG         4.4830  -21.6440  -27.6080 C.ar   59  PHE59      -0.0203
     40  CD1        3.1400  -21.1320  -27.6050 C.ar   59  PHE59      -0.0042
     41  CD2        5.2570  -21.4190  -28.7130 C.ar   59  PHE59      -0.0042
     42  CE1        2.7030  -20.3480  -28.6900 C.ar   59  PHE59      -0.0003
     43  CE2        4.7420  -20.6240  -29.7770 C.ar   59  PHE59      -0.0003
     44  CZ         3.4890  -20.1150  -29.7570 C.ar   59  PHE59      -0.0000
     45  N         -6.4450  -21.1120  -30.6670 N.3   118  VAL118     -0.1231
     46  CA        -5.9250  -19.8430  -31.1800 C.3   118  VAL118      0.1692
     47  C         -4.8130  -20.2370  -32.1350 C.2   118  VAL118      0.2592
     48  O         -3.8290  -20.9080  -31.6960 O.2   118  VAL118     -0.2718
     49  CB        -5.3630  -18.9330  -30.0820 C.3   118  VAL118      0.0266
     50  CG1       -4.7950  -17.5890  -30.7120 C.3   118  VAL118      0.0020
     51  CG2       -6.4120  -18.6350  -29.0280 C.3   118  VAL118      0.0020
     52  N         -4.8910  -19.8680  -33.4110 N.am  119  ASN119     -0.1960
     53  CA        -3.8860  -20.1080  -34.3830 C.3   119  ASN119      0.1819
     54  C         -3.0530  -18.9150  -34.5460 C.2   119  ASN119      0.2621
     55  O         -3.5390  -17.8570  -35.0450 O.2   119  ASN119     -0.2715
     56  CB        -4.5800  -20.4950  -35.6660 C.3   119  ASN119      0.1195
     57  CG        -3.6470  -21.1300  -36.7000 C.2   119  ASN119      0.2630
     58  OD1       -2.3990  -21.0460  -36.6220 O.2   119  ASN119     -0.2716
     59  ND2       -4.2220  -21.7690  -37.6890 N.am  119  ASN119     -0.0877
     60  N         -1.7880  -19.0190  -34.2130 N.am  120  TYR120     -0.1974
     61  CA        -0.8350  -17.8860  -34.3540 C.3   120  TYR120      0.1639
     62  C         -0.1670  -17.9600  -35.7360 C.2   120  TYR120      0.2290
     63  O          0.6780  -17.0920  -36.0200 O.2   120  TYR120     -0.2864
     64  CB         0.1830  -17.8680  -33.2230 C.3   120  TYR120      0.0560
     65  CG        -0.4440  -17.5350  -31.8690 C.ar  120  TYR120     -0.0198
     66  CD1       -1.1580  -16.3500  -31.7250 C.ar  120  TYR120     -0.0009
     67  CD2       -0.2800  -18.3640  -30.8310 C.ar  120  TYR120     -0.0009
     68  CE1       -1.7180  -16.0200  -30.5010 C.ar  120  TYR120      0.0417
     69  CE2       -0.8450  -18.0700  -29.5570 C.ar  120  TYR120      0.0417
     70  CZ        -1.5550  -16.8610  -29.4100 C.ar  120  TYR120      0.1957
     71  OH        -2.1140  -16.5100  -28.2530 O.3   120  TYR120     -0.2866
     72  N         -4.4640   -6.2780  -24.6940 N.3   136  ALA136     -0.1231
     73  CA        -3.0500   -6.4900  -24.4260 C.3   136  ALA136      0.1694
     74  C         -2.3020   -6.0990  -25.6830 C.2   136  ALA136      0.2592
     75  O         -2.8500   -6.0040  -26.7840 O.2   136  ALA136     -0.2718
     76  CB        -2.7790   -7.9430  -24.0320 C.3   136  ALA136      0.0304
     77  N         -0.9800   -5.9080  -25.5080 N.am  137  GLU137     -0.1966
     78  CA        -0.1060   -5.5220  -26.6220 C.3   137  GLU137      0.1718
     79  C          1.2420   -6.2290  -26.4950 C.2   137  GLU137      0.2458
     80  O          1.5510   -6.7950  -25.4750 O.2   137  GLU137     -0.2730
     81  CB         0.0930   -4.0020  -26.5850 C.3   137  GLU137      0.0428
     82  CG        -1.1800   -3.2320  -26.7130 C.3   137  GLU137      0.1163
     83  CD        -1.0720   -1.7590  -26.6690 C.2   137  GLU137      0.3649
     84  OE1        0.0720   -1.2210  -26.4450 O.co2 137  GLU137     -0.2457
     85  OE2       -2.1140   -1.0770  -26.7800 O.co2 137  GLU137     -0.2457
     86  N          2.0180   -6.2360  -27.6170 N.am  138  PRO138     -0.2716
     87  CA         3.3000   -6.9750  -27.5750 C.3   138  PRO138      0.1536
     88  C          4.1720   -6.5730  -26.3800 C.2   138  PRO138      0.2599
     89  O          4.3790   -5.3420  -26.1860 O.2   138  PRO138     -0.2715
     90  CB         3.8840   -6.6990  -28.9570 C.3   138  PRO138      0.0310
     91  CG         2.7050   -6.5280  -29.8070 C.3   138  PRO138      0.0237
     92  CD         1.6960   -5.7720  -28.9580 C.3   138  PRO138      0.0939
     93  N          4.7160   -7.5340  -25.6610 N.am  139  GLY139     -0.1941
     94  CA         5.4580   -7.4110  -24.4380 C.3   139  GLY139      0.2014
     95  C          4.6780   -7.7740  -23.1900 C.2   139  GLY139      0.2639
     96  O          5.2680   -8.1050  -22.1600 O.2   139  GLY139     -0.2714
     97  N          3.3530   -7.7770  -23.3140 N.am  140  ASP140     -0.1957
     98  CA         2.4990   -8.1730  -22.2600 C.3   140  ASP140      0.1840
     99  C          2.4580   -9.7140  -22.0510 C.2   140  ASP140      0.2622
    100  O          1.9620  -10.1430  -21.0000 O.2   140  ASP140     -0.2715
    101  CB         1.0580   -7.6570  -22.4940 C.3   140  ASP140      0.1450
    102  CG         0.8910   -6.1910  -22.1800 C.2   140  ASP140      0.3671
    103  OD1        1.6010   -5.5970  -21.3280 O.co2 140  ASP140     -0.2456
    104  OD2       -0.0550   -5.6140  -22.8460 O.co2 140  ASP140     -0.2456
    105  N          2.8980  -10.4680  -23.0220 N.am  141  SER141     -0.1950
    106  CA         2.8410  -11.9140  -22.9090 C.3   141  SER141      0.1924
    107  C          3.4950  -12.3800  -21.6430 C.2   141  SER141      0.2314
    108  O          4.5490  -11.9060  -21.2540 O.2   141  SER141     -0.2863
    109  CB         3.4620  -12.5980  -24.1190 C.3   141  SER141      0.2116
    110  OG         2.8020  -12.3280  -25.3440 O.3   141  SER141     -0.2180
    111  N         -0.9230  -14.4480  -19.9230 N.3   155  THR155     -0.1203
    112  CA        -1.2080  -13.7940  -21.1810 C.3   155  THR155      0.1994
    113  C         -0.5420  -14.4970  -22.3570 C.2   155  THR155      0.2619
    114  O          0.6850  -14.6270  -22.3700 O.2   155  THR155     -0.2717
    115  CB        -0.7600  -12.3480  -21.1280 C.3   155  THR155      0.1784
    116  OG1       -1.3520  -11.7080  -20.0000 O.3   155  THR155     -0.2211
    117  CG2       -1.1920  -11.5740  -22.3890 C.3   155  THR155      0.0376
    118  N         -1.3170  -14.9120  -23.3360 N.am  156  SER156     -0.1937
    119  CA        -0.7450  -15.5650  -24.5450 C.3   156  SER156      0.2055
    120  C         -0.7330  -14.6540  -25.7570 C.2   156  SER156      0.2644
    121  O          0.3440  -14.3990  -26.3280 O.2   156  SER156     -0.2714
    122  CB        -1.4610  -16.8940  -24.8260 C.3   156  SER156      0.2130
    123  OG        -1.0120  -17.5230  -25.9830 O.3   156  SER156     -0.2179
    124  N         -1.8680  -14.0950  -26.1810 N.am  157  GLY157     -0.1939
    125  CA        -1.9360  -13.3600  -27.4650 C.3   157  GLY157      0.2014
    126  C         -3.3580  -12.9470  -27.7000 C.2   157  GLY157      0.2639
    127  O         -4.2230  -13.1650  -26.9140 O.2   157  GLY157     -0.2714
    128  N         -3.5600  -12.3950  -28.8800 N.am  158  GLY158     -0.1939
    129  CA        -4.8650  -11.8180  -29.1420 C.3   158  GLY158      0.2014
    130  C         -4.8160  -10.8560  -30.2780 C.2   158  GLY158      0.2640
    131  O         -3.9270  -10.8530  -31.1580 O.2   158  GLY158     -0.2714
    132  N         -5.8270  -10.0160  -30.3410 N.am  159  SER159     -0.1935
    133  CA        -6.0180   -9.0360  -31.3570 C.3   159  SER159      0.2055
    134  C         -6.4200   -7.6950  -30.7640 C.2   159  SER159      0.2643
    135  O         -6.7970   -7.6430  -29.5440 O.2   159  SER159     -0.2714
    136  CB        -7.0830   -9.4260  -32.4160 C.3   159  SER159      0.2130
    137  OG        -8.3320   -9.5750  -31.7540 O.3   159  SER159     -0.2179
    138  N         -6.3210   -6.6370  -31.5400 N.am  160  GLY160     -0.1954
    139  CA        -6.6420   -5.3020  -31.0480 C.3   160  GLY160      0.1869
    140  C         -5.5460   -4.7190  -30.2130 C.2   160  GLY160      0.2309
    141  O         -4.4070   -5.1080  -30.2840 O.2   160  GLY160     -0.2863
    142  N         -9.1650   -8.3380  -27.8270 N.3   167  THR167     -0.1203
    143  CA        -9.5240   -9.6580  -27.3910 C.3   167  THR167      0.1994
    144  C         -8.2260  -10.3330  -27.0200 C.2   167  THR167      0.2619
    145  O         -7.3580  -10.4110  -27.8520 O.2   167  THR167     -0.2717
    146  CB       -10.2690  -10.4180  -28.4720 C.3   167  THR167      0.1784
    147  OG1      -11.4820   -9.7080  -28.7770 O.3   167  THR167     -0.2211
    148  CG2      -10.5910  -11.8620  -27.9910 C.3   167  THR167      0.0376
    149  N         -8.1070  -10.8190  -25.7910 N.am  168  THR168     -0.1938
    150  CA        -6.8910  -11.4840  -25.4080 C.3   168  THR168      0.2028
    151  C         -7.1940  -12.8760  -24.8290 C.2   168  THR168      0.2642
    152  O         -8.1890  -13.0460  -24.1230 O.2   168  THR168     -0.2714
    153  CB        -6.1010  -10.6920  -24.3460 C.3   168  THR168      0.1808
    154  OG1       -5.8480   -9.3510  -24.8640 O.3   168  THR168     -0.2208
    155  CG2       -4.7480  -11.2800  -23.9860 C.3   168  THR168      0.0379
    156  N         -6.3320  -13.8190  -25.2130 N.am  169  PHE169     -0.1973
    157  CA        -6.3950  -15.2100  -24.8310 C.3   169  PHE169      0.1639
    158  C         -5.2790  -15.4970  -23.8300 C.2   169  PHE169      0.2290
    159  O         -4.1740  -15.0100  -23.8930 O.2   169  PHE169     -0.2864
    160  CB        -6.2320  -16.1100  -26.0420 C.3   169  PHE169      0.0560
    161  CG        -7.2960  -15.9290  -27.0400 C.ar  169  PHE169     -0.0200
    162  CD1       -8.4310  -16.6910  -27.0050 C.ar  169  PHE169     -0.0042
    163  CD2       -7.1820  -15.0020  -28.0220 C.ar  169  PHE169     -0.0042
    164  CE1       -9.4190  -16.5500  -27.9720 C.ar  169  PHE169     -0.0003
    165  CE2       -8.1580  -14.8430  -28.9560 C.ar  169  PHE169     -0.0003
    166  CZ        -9.2720  -15.6470  -28.9620 C.ar  169  PHE169     -0.0000
@<TRIPOS>BOND
     1    59    57   am
     2    57    58    2
     3    57    56    1
     4    63    62    2
     5    62    61    1
     6    56    53    1
     7    55    54    2
     8    54    53    1
     9    54    60   am
    10    53    52    1
    11    61    60    1
    12    61    64    1
    13    52    47   am
    14    64    65    1
    15   136   137    1
    16   136   133    1
    17    47    48    2
    18    47    46    1
    19    65    66   ar
    20    65    67   ar
    21    66    68   ar
    22   138   139    1
    23   138   134   am
    24   133   134    1
    25   133   132    1
    26    46    45    1
    27    46    49    1
    28   131   130    2
    29   139   140    1
    30    67    69   ar
    31   134   135    2
    32    50    49    1
    33    68    70   ar
    34   132   130   am
    35   141   140    2
    36   130   129    1
    37    49    51    1
    38    91    92    1
    39    91    90    1
    40    43    44   ar
    41    43    41   ar
    42    44    42   ar
    43    69    70   ar
    44    70    71    1
    45   129   128    1
    46   166   165   ar
    47   166   164   ar
    48    92    86    1
    49    90    87    1
    50   165   163   ar
    51   128   126   am
    52   147   146    1
    53    41    39   ar
    54    42    40   ar
    55   146   148    1
    56   146   143    1
    57   163   161   ar
    58    37    36    2
    59   164   162   ar
    60    36    35    1
    61   145   144    2
    62   142   143    1
    63   126   125    1
    64   126   127    2
    65    86    87    1
    66    86    79   am
    67    39    40   ar
    68    39    38    1
    69    87    88    1
    70   125   124    1
    71   143   144    1
    72    22    23    1
    73    22    19    1
    74   161   162   ar
    75   161   160    1
    76   144   149   am
    77    25    23   ar
    78    25    27   ar
    79    21    20    2
    80    23    24   ar
    81    75    74    2
    82    85    83   ar
    83    82    83    1
    84    82    81    1
    85    83    84   ar
    86    78    81    1
    87    78    79    1
    88    78    77    1
    89    27    26   ar
    90    35    38    1
    91    35    34    1
    92    79    80    2
    93    88    89    2
    94    88    93   am
    95    24    26   ar
    96    19    20    1
    97    19    18    1
    98   121   120    2
    99   124   120   am
   100   160   157    1
   101    20    28   am
   102   123   122    1
   103   149   150    1
   104   120   119    1
   105    74    77   am
   106    74    73    1
   107    93    94    1
   108   150   151    1
   109   150   153    1
   110   110   109    1
   111   156   157    1
   112   156   151   am
   113   154   153    1
   114   157   158    1
   115   151   152    2
   116   122   119    1
   117    28    29    1
   118     1     2    1
   119    72    73    1
   120   119   118    1
   121    94    95    1
   122    73    76    1
   123   153   155    1
   124     4     3    2
   125    29    30    1
   126    29    32    1
   127    11     9    1
   128    31    30    2
   129   109   106    1
   130   159   158    2
   131    33    17    1
   132    33    32    1
   133    17    16    1
   134     2     3    1
   135     2     5    1
   136     3    12   am
   137   118   113   am
   138    97    95   am
   139    97    98    1
   140     5     6    1
   141    95    96    2
   142     9     8    2
   143     9    10    1
   144   105   106    1
   145   105    99   am
   146   106   107    1
   147   104   102   ar
   148     8     7    1
   149   101    98    1
   150   101   102    1
   151   117   115    1
   152   114   113    2
   153   113   112    1
   154    98    99    1
   155    12    13    1
   156   102   103   ar
   157    99   100    2
   158     6     7    1
   159    16    13    1
   160    13    14    1
   161   107   108    2
   162   112   115    1
   163   112   111    1
   164   115   116    1
   165    14    15    2
