@<TRIPOS>MOLECULE
tmp/2qaaA00.pdb
 110 108 0 0 0
SMALL
GASTEIGER

@<TRIPOS>ATOM
      1  N         25.7360   -7.7670   61.6500 N.3    13  ARG13      -0.1231
      2  CA        24.6780   -6.7750   61.6760 C.3    13  ARG13       0.1694
      3  C         24.6090   -5.9810   60.3940 C.2    13  ARG13       0.2592
      4  O         25.6200   -5.4740   59.9000 O.2    13  ARG13      -0.2718
      5  CB        24.8700   -5.8040   62.8600 C.3    13  ARG13       0.0321
      6  CG        23.8180   -4.7070   62.9120 C.3    13  ARG13       0.0489
      7  CD        23.9050   -3.8340   64.1350 C.3    13  ARG13       0.2205
      8  NE        25.2560   -3.2660   64.3450 N.pl3  13  ARG13      -0.0865
      9  CZ        25.6730   -2.1650   63.7590 C.cat  13  ARG13       0.5346
     10  NH1       24.9030   -1.4590   62.9880 N.pl3  13  ARG13       0.1354
     11  NH2       26.9380   -1.7870   63.9090 N.pl3  13  ARG13       0.1354
     12  N         23.3790   -5.7860   59.9010 N.am   14  CYS14      -0.1970
     13  CA        23.0860   -4.8690   58.8310 C.3    14  CYS14       0.1712
     14  C         21.8720   -4.0390   59.2540 C.2    14  CYS14       0.2296
     15  O         21.5200   -3.9880   60.4210 O.2    14  CYS14      -0.2864
     16  CB        22.7270   -5.7200   57.5300 C.3    14  CYS14       0.0983
     17  SG        24.2070   -6.5840   56.7880 S.3    14  CYS14      -0.0798
     18  N         24.3660   -8.2590   49.5270 N.3    33  HIS33      -0.1226
     19  CA        25.6090   -8.7070   50.1560 C.3    33  HIS33       0.1752
     20  C         25.3790   -9.0520   51.6080 C.2    33  HIS33       0.2596
     21  O         26.2570   -9.7270   52.1920 O.2    33  HIS33      -0.2718
     22  CB        26.7450   -7.6940   49.9490 C.3    33  HIS33       0.0759
     23  CG        26.7040   -6.4820   50.7970 C.ar   33  HIS33       0.0818
     24  ND1       26.2600   -5.2480   50.3200 N.ar   33  HIS33      -0.2268
     25  CD2       27.0910   -6.2910   52.0770 C.ar   33  HIS33       0.1154
     26  CE1       26.3840   -4.3680   51.3090 C.ar   33  HIS33       0.1986
     27  NE2       26.9150   -4.9910   52.3810 N.ar   33  HIS33      -0.2212
     28  N         24.3090   -8.6430   52.2240 N.am   34  CYS34      -0.1970
     29  CA        23.9560   -9.0520   53.5840 C.3    34  CYS34       0.1712
     30  C         23.1980  -10.3800   53.6140 C.2    34  CYS34       0.2296
     31  O         23.4200  -11.1920   54.5110 O.2    34  CYS34      -0.2864
     32  CB        23.0580   -7.9530   54.2060 C.3    34  CYS34       0.0983
     33  SG        24.0180   -6.4230   54.5360 S.3    34  CYS34      -0.0798
     34  N         27.8530    6.9490   55.1150 N.3   136  ALA136     -0.1231
     35  CA        27.4210    5.6910   55.7010 C.3   136  ALA136      0.1694
     36  C         28.6360    5.0220   56.3360 C.2   136  ALA136      0.2592
     37  O         29.7820    5.3300   55.9980 O.2   136  ALA136     -0.2718
     38  CB        26.7450    4.7590   54.6800 C.3   136  ALA136      0.0304
     39  N         28.3720    4.0490   57.2240 N.am  137  GLU137     -0.1966
     40  CA        29.4230    3.2700   57.8700 C.3   137  GLU137      0.1718
     41  C         29.0420    1.8050   57.9380 C.2   137  GLU137      0.2458
     42  O         27.8460    1.4690   57.8210 O.2   137  GLU137     -0.2730
     43  CB        29.6860    3.8160   59.2800 C.3   137  GLU137      0.0428
     44  CG        30.2390    5.2330   59.2730 C.3   137  GLU137      0.1163
     45  CD        30.4340    5.8830   60.5810 C.2   137  GLU137      0.3649
     46  OE1       30.3610    5.2100   61.6570 O.co2 137  GLU137     -0.2457
     47  OE2       30.6740    7.1290   60.6290 O.co2 137  GLU137     -0.2457
     48  N         29.9830    0.9030   58.1910 N.am  138  PRO138     -0.2716
     49  CA        29.6530   -0.5100   58.2880 C.3   138  PRO138      0.1536
     50  C         28.5340   -0.7700   59.2660 C.2   138  PRO138      0.2599
     51  O         28.5280   -0.2290   60.3970 O.2   138  PRO138     -0.2715
     52  CB        30.9890   -1.1350   58.6920 C.3   138  PRO138      0.0310
     53  CG        32.0180   -0.2600   58.0420 C.3   138  PRO138      0.0237
     54  CD        31.4240    1.1590   58.2810 C.3   138  PRO138      0.0939
     55  N         27.5740   -1.5700   58.8820 N.am  139  GLY139     -0.1941
     56  CA        26.3420   -1.8550   59.5860 C.3   139  GLY139      0.2014
     57  C         25.1480   -1.1220   59.0490 C.2   139  GLY139      0.2639
     58  O         24.0050   -1.5540   59.2400 O.2   139  GLY139     -0.2714
     59  N         25.3930   -0.0210   58.2970 N.am  140  ASP140     -0.1957
     60  CA        24.3060    0.7190   57.6360 C.3   140  ASP140      0.1840
     61  C         23.8380    0.0270   56.3430 C.2   140  ASP140      0.2622
     62  O         22.8020    0.4010   55.8250 O.2   140  ASP140     -0.2715
     63  CB        24.8220    2.1390   57.3090 C.3   140  ASP140      0.1450
     64  CG        24.9470    3.0850   58.5200 C.2   140  ASP140      0.3671
     65  OD1       24.2110    2.9010   59.5260 O.co2 140  ASP140     -0.2456
     66  OD2       25.7560    4.0410   58.3850 O.co2 140  ASP140     -0.2456
     67  N         24.6000   -0.9410   55.8420 N.am  141  SER141     -0.1950
     68  CA        24.2500   -1.6170   54.6380 C.3   141  SER141      0.1924
     69  C         22.8720   -2.1750   54.7150 C.2   141  SER141      0.2314
     70  O         22.4410   -2.7090   55.7260 O.2   141  SER141     -0.2863
     71  CB        25.1790   -2.7860   54.3270 C.3   141  SER141      0.2116
     72  OG        26.5400   -2.2550   54.1280 O.3   141  SER141     -0.2180
     73  N         21.0180    0.7350   50.8640 N.3   155  THR155     -0.1203
     74  CA        22.4320    1.0760   51.0150 C.3   155  THR155      0.1994
     75  C         23.3170   -0.0840   50.6090 C.2   155  THR155      0.2619
     76  O         23.2550   -1.1690   51.1850 O.2   155  THR155     -0.2717
     77  CB        22.7140    1.4690   52.4820 C.3   155  THR155      0.1784
     78  OG1       21.8510    2.5100   52.8610 O.3   155  THR155     -0.2211
     79  CG2       24.1590    1.9100   52.6700 C.3   155  THR155      0.0376
     80  N         24.2120    0.1640   49.6340 N.am  156  SER156     -0.1937
     81  CA        25.1370   -0.8600   49.1760 C.3   156  SER156      0.2055
     82  C         26.5340   -0.6930   49.7040 C.2   156  SER156      0.2644
     83  O         27.0920   -1.6440   50.2580 O.2   156  SER156     -0.2714
     84  CB        25.1440   -0.8940   47.6490 C.3   156  SER156      0.2130
     85  OG        26.0850   -1.8420   47.1240 O.3   156  SER156     -0.2179
     86  N         27.1580    0.4750   49.5690 N.am  157  GLY157     -0.1939
     87  CA        28.5270    0.6470   49.9720 C.3   157  GLY157      0.2014
     88  C         29.0530    1.9650   49.5430 C.2   157  GLY157      0.2639
     89  O         28.3040    2.8100   49.0680 O.2   157  GLY157     -0.2714
     90  N         30.3400    2.2010   49.7740 N.am  158  GLY158     -0.1939
     91  CA        30.9320    3.4390   49.4830 C.3   158  GLY158      0.2014
     92  C         32.1670    3.7270   50.2420 C.2   158  GLY158      0.2640
     93  O         32.8580    2.7900   50.6040 O.2   158  GLY158     -0.2714
     94  N         32.5110    4.9780   50.4170 N.am  159  SER159     -0.1935
     95  CA        33.7550    5.4280   51.0140 C.3   159  SER159      0.2055
     96  C         33.4670    6.4850   52.0740 C.2   159  SER159      0.2643
     97  O         32.4280    7.1120   52.0620 O.2   159  SER159     -0.2714
     98  CB        34.7200    5.9940   49.9650 C.3   159  SER159      0.2130
     99  OG        34.1880    7.0800   49.2940 O.3   159  SER159     -0.2179
    100  N         34.4340    6.7340   52.9530 N.am  160  GLY160     -0.1954
    101  CA        34.3240    7.7350   53.9830 C.3   160  GLY160      0.1869
    102  C         33.4830    7.2730   55.1510 C.2   160  GLY160      0.2309
    103  O         33.2950    6.0720   55.3770 O.2   160  GLY160     -0.2863
    104  N         28.1980    7.4630   49.1780 N.3   168  THR168     -0.1218
    105  CA        27.5160    6.1970   49.3140 C.3   168  THR168      0.1862
    106  C         26.6990    5.9030   48.0730 C.2   168  THR168      0.2287
    107  O         26.0630    6.8090   47.4950 O.2   168  THR168     -0.2866
    108  CB        26.5920    6.1780   50.5680 C.3   168  THR168      0.1770
    109  OG1       27.3960    6.5280   51.7220 O.3   168  THR168     -0.2211
    110  CG2       25.9800    4.8180   50.8580 C.3   168  THR168      0.0375
@<TRIPOS>BOND
     1    85    84    1
     2   107   106    2
     3    84    81    1
     4   106   105    1
     5    89    88    2
     6    81    80    1
     7    81    82    1
     8   104   105    1
     9    99    98    1
    10   105   108    1
    11    91    90    1
    12    91    92    1
    13    18    19    1
    14    88    90   am
    15    88    87    1
    16    86    82   am
    17    86    87    1
    18    80    75   am
    19    82    83    2
    20    22    19    1
    21    22    23    1
    22    98    95    1
    23    19    20    1
    24    92    94   am
    25    92    93    2
    26    24    23   ar
    27    24    26   ar
    28    94    95    1
    29   108   110    1
    30   108   109    1
    31    75    74    1
    32    75    76    2
    33    23    25   ar
    34    73    74    1
    35    95    96    1
    36    74    77    1
    37    26    27   ar
    38    20    21    2
    39    20    28   am
    40    97    96    2
    41    96   100   am
    42    25    27   ar
    43    28    29    1
    44    77    79    1
    45    77    78    1
    46   100   101    1
    47    29    30    1
    48    29    32    1
    49    30    31    2
    50   101   102    1
    51    72    71    1
    52    32    33    1
    53    71    68    1
    54    33    17    1
    55    68    69    1
    56    68    67    1
    57    38    35    1
    58    69    70    2
    59    34    35    1
    60   102   103    2
    61    35    36    1
    62    62    61    2
    63    67    61   am
    64    37    36    2
    65    36    39   am
    66    61    60    1
    67    17    16    1
    68    39    40    1
    69    63    60    1
    70    63    64    1
    71    16    13    1
    72    60    59    1
    73    42    41    2
    74    40    41    1
    75    40    43    1
    76    41    48   am
    77    53    54    1
    78    53    52    1
    79    48    54    1
    80    48    49    1
    81    49    52    1
    82    49    50    1
    83    59    57   am
    84    66    64   ar
    85    64    65   ar
    86    13    14    1
    87    13    12    1
    88    55    50   am
    89    55    56    1
    90    57    58    2
    91    57    56    1
    92    14    15    2
    93    50    51    2
    94    44    43    1
    95    44    45    1
    96     4     3    2
    97    12     3   am
    98     3     2    1
    99    45    47   ar
   100    45    46   ar
   101     1     2    1
   102     2     5    1
   103     5     6    1
   104     6     7    1
   105    10     9    1
   106     9    11    1
   107     9     8    2
   108     7     8    1
