@<TRIPOS>MOLECULE
tmp/2qagA00.pdb
 107 102 0 0 0
SMALL
GASTEIGER

@<TRIPOS>ATOM
      1  N         90.1640   80.3810    5.1470 N.3    26  SER26      -0.1202
      2  CA        89.9920   79.5750    6.3490 C.3    26  SER26       0.2020
      3  C         88.5180   79.2990    6.6230 C.2    26  SER26       0.2619
      4  O         87.7000   80.2180    6.6540 O.2    26  SER26      -0.2717
      5  CB        90.6300   80.2680    7.5550 C.3    26  SER26       0.2103
      6  OG        90.4980   81.6760    7.4610 O.3    26  SER26      -0.2182
      7  N         88.1850   78.0270    6.8200 N.am   27  GLY27      -0.1942
      8  CA        88.2740   77.0430    5.7580 C.3    27  GLY27       0.2014
      9  C         89.1260   75.8500    6.1430 C.2    27  GLY27       0.2639
     10  O         88.8360   75.1550    7.1170 O.2    27  GLY27      -0.2714
     11  N         90.1840   75.6120    5.3740 N.am   28  LEU28      -0.1963
     12  CA        90.3190   74.3720    4.6190 C.3    28  LEU28       0.1728
     13  C         91.5500   73.5890    5.0610 C.2    28  LEU28       0.2617
     14  O         92.0700   72.7590    4.3150 O.2    28  LEU28      -0.2715
     15  CB        90.3900   74.6630    3.1190 C.3    28  LEU28       0.0311
     16  CG        90.1120   76.1060    2.6940 C.3    28  LEU28       0.0022
     17  CD1       91.1840   76.6000    1.7340 C.3    28  LEU28       0.0001
     18  CD2       88.7310   76.2260    2.0690 C.3    28  LEU28       0.0001
     19  N         92.0120   73.8580    6.2780 N.am   29  GLY29      -0.1940
     20  CA        93.0360   73.0420    6.9030 C.3    29  GLY29       0.2014
     21  C         94.4320   73.4080    6.4400 C.2    29  GLY29       0.2639
     22  O         95.2720   72.5350    6.2200 O.2    29  GLY29      -0.2714
     23  N         94.6810   74.7050    6.2940 N.am   30  LYS30      -0.1963
     24  CA        96.0430   75.2230    6.2360 C.3    30  LYS30       0.1728
     25  C         96.8700   74.7330    7.4200 C.2    30  LYS30       0.2617
     26  O         97.9990   74.2740    7.2530 O.2    30  LYS30      -0.2715
     27  CB        96.0330   76.7520    6.1970 C.3    30  LYS30       0.0311
     28  CG        95.2920   77.3390    5.0070 C.3    30  LYS30       0.0038
     29  CD        95.0030   78.8170    5.2100 C.3    30  LYS30       0.0206
     30  CE        93.6120   79.0350    5.7810 C.3    30  LYS30       0.1093
     31  NZ        93.6110   78.9960    7.2700 N.3    30  LYS30      -0.1314
     32  N         96.2990   74.8350    8.6160 N.am   31  SER31      -0.1936
     33  CA        97.0520   74.6130    9.8450 C.3    31  SER31       0.2055
     34  C         97.0170   73.1450   10.2550 C.2    31  SER31       0.2643
     35  O         97.8800   72.6770   10.9970 O.2    31  SER31      -0.2714
     36  CB        96.5040   75.4880   10.9740 C.3    31  SER31       0.2130
     37  OG        95.1670   75.1380   11.2870 O.3    31  SER31      -0.2179
     38  N         96.0130   72.4230    9.7670 N.am   32  THR32      -0.1950
     39  CA        95.9340   70.9820    9.9750 C.3    32  THR32       0.1897
     40  C         96.8200   70.2320    8.9860 C.2    32  THR32       0.2313
     41  O         97.4990   69.2720    9.3510 O.2    32  THR32      -0.2863
     42  CB        94.4870   70.4720    9.8420 C.3    32  THR32       0.1794
     43  OG1       94.4220   69.0990   10.2470 O.3    32  THR32      -0.2208
     44  CG2       94.0090   70.5940    8.4030 C.3    32  THR32       0.0378
     45  N         93.2120   72.2330   -1.1420 N.3   127  ALA127     -0.1231
     46  CA        92.9040   71.4490    0.0470 C.3   127  ALA127      0.1694
     47  C         91.5620   70.7380   -0.0940 C.2   127  ALA127      0.2591
     48  O         90.6740   71.2030   -0.8070 O.2   127  ALA127     -0.2718
     49  CB        92.9090   72.3360    1.2830 C.3   127  ALA127      0.0304
     50  N         91.4230   69.6070    0.5910 N.am  128  LYS128     -0.1980
     51  CA        90.1490   68.9010    0.6530 C.3   128  LYS128      0.1596
     52  C         89.5340   68.4950   -0.6810 C.2   128  LYS128      0.2287
     53  O         88.3830   68.8220   -0.9710 O.2   128  LYS128     -0.2864
     54  CB        89.1160   69.7270    1.4230 C.3   128  LYS128      0.0298
     55  CG        88.3810   68.9500    2.5030 C.3   128  LYS128      0.0038
     56  CD        88.6400   69.5370    3.8800 C.3   128  LYS128      0.0206
     57  CE        87.3600   70.0700    4.5030 C.3   128  LYS128      0.1093
     58  NZ        87.2410   71.5470    4.3520 N.3   128  LYS128     -0.1314
     59  N         89.2360   65.1250   -1.1260 N.3   130  ASP130     -0.1239
     60  CA        88.2090   64.1050   -0.9550 C.3   130  ASP130      0.1674
     61  C         86.8270   64.7330   -0.8070 C.2   130  ASP130      0.2266
     62  O         85.8830   64.0820   -0.3590 O.2   130  ASP130     -0.2867
     63  CB        88.5210   63.2290    0.2600 C.3   130  ASP130      0.1410
     64  CG        88.6970   64.0370    1.5310 C.2   130  ASP130      0.3668
     65  OD1       89.6570   64.8340    1.6030 O.co2 130  ASP130     -0.2456
     66  OD2       87.8770   63.8760    2.4580 O.co2 130  ASP130     -0.2456
     67  N         95.1500   67.8440   -1.5660 N.3   174  VAL174     -0.1231
     68  CA        95.9010   67.4490   -0.3800 C.3   174  VAL174      0.1692
     69  C         95.0200   67.4790    0.8650 C.2   174  VAL174      0.2592
     70  O         94.3510   68.4750    1.1390 O.2   174  VAL174     -0.2718
     71  CB        97.1220   68.3590   -0.1560 C.3   174  VAL174      0.0266
     72  CG1       98.3920   67.6690   -0.6300 C.3   174  VAL174      0.0020
     73  CG2       96.9310   69.6880   -0.8700 C.3   174  VAL174      0.0020
     74  N         95.0270   66.3820    1.6150 N.am  175  VAL175     -0.1966
     75  CA        94.4740   66.3670    2.8990 C.3   175  VAL175      0.1727
     76  C         95.4020   65.9550    4.0040 C.2   175  VAL175      0.2616
     77  O         95.9090   64.8370    3.9620 O.2   175  VAL175     -0.2715
     78  CB        93.5560   65.2790    2.8660 C.3   175  VAL175      0.0290
     79  CG1       92.8080   65.2990    4.1980 C.3   175  VAL175      0.0023
     80  CG2       92.6630   65.4130    1.6470 C.3   175  VAL175      0.0023
     81  N         95.6250   66.8330    4.9770 N.am  176  GLY176     -0.1955
     82  CA        96.2440   66.4410    6.2300 C.3   176  GLY176      0.1869
     83  C         95.2330   65.9510    7.2480 C.2   176  GLY176      0.2309
     84  O         94.4300   66.7280    7.7630 O.2   176  GLY176     -0.2863
     85  N         91.7480   59.8240    7.5960 N.3   185  ARG185     -0.1245
     86  CA        90.4870   60.5550    7.6290 C.3   185  ARG185      0.1563
     87  C         89.2590   59.6790    7.4020 C.2   185  ARG185      0.2260
     88  O         89.2970   58.7330    6.6150 O.2   185  ARG185     -0.2867
     89  CB        90.4280   61.6440    6.5690 C.3   185  ARG185      0.0307
     90  CG        89.4280   62.7450    6.9030 C.3   185  ARG185      0.0489
     91  CD        89.1860   63.5830    5.7130 C.3   185  ARG185      0.2205
     92  NE        88.2710   64.6810    5.9990 N.pl3 185  ARG185     -0.0865
     93  CZ        88.5880   65.9030    6.4640 C.cat 185  ARG185      0.5346
     94  NH1       89.8450   66.1690    6.7990 N.pl3 185  ARG185      0.1354
     95  NH2       87.6110   66.7970    6.5690 N.pl3 185  ARG185      0.1354
     96  N         85.5230   58.0840    7.2220 N.3   187  TYR187     -0.1241
     97  CA        84.2430   58.0820    6.5220 C.3   187  TYR187      0.1605
     98  C         83.4990   56.7640    6.7190 C.2   187  TYR187      0.2264
     99  O         84.0600   55.6860    6.5210 O.2   187  TYR187     -0.2867
    100  CB        84.4480   58.3520    5.0290 C.3   187  TYR187      0.0534
    101  CG        84.6020   59.8160    4.6860 C.ar  187  TYR187     -0.0201
    102  CD1       85.7130   60.5350    5.1060 C.ar  187  TYR187     -0.0009
    103  CD2       83.6360   60.4800    3.9430 C.ar  187  TYR187     -0.0009
    104  CE1       85.8580   61.8740    4.7950 C.ar  187  TYR187      0.0417
    105  CE2       83.7720   61.8190    3.6270 C.ar  187  TYR187      0.0417
    106  CZ        84.8850   62.5100    4.0550 C.ar  187  TYR187      0.1957
    107  OH        85.0240   63.8430    3.7430 O.3   187  TYR187     -0.2866
@<TRIPOS>BOND
     1    67    68    1
     2    45    46    1
     3    59    60    1
     4    53    52    2
     5    60    61    1
     6    60    63    1
     7    73    71    1
     8    61    62    2
     9    48    47    2
    10    52    51    1
    11    72    71    1
    12    68    71    1
    13    68    69    1
    14    47    46    1
    15    47    50   am
    16    46    49    1
    17    63    64    1
    18    50    51    1
    19    51    54    1
    20    69    70    2
    21    69    74   am
    22    54    55    1
    23    64    65   ar
    24    64    66   ar
    25    74    75    1
    26    80    78    1
    27    17    16    1
    28    18    16    1
    29    55    56    1
    30    16    15    1
    31    78    75    1
    32    78    79    1
    33    75    76    1
    34    15    12    1
    35   105   103   ar
    36   105   106   ar
    37   107   106    1
    38    56    57    1
    39   103   101   ar
    40    77    76    2
    41    76    81   am
    42   106   104   ar
    43    14    13    2
    44    58    57    1
    45    12    13    1
    46    12    11    1
    47   101   100    1
    48   101   102   ar
    49   104   102   ar
    50    81    82    1
    51    28    29    1
    52    28    27    1
    53   100    97    1
    54    13    19   am
    55     1     2    1
    56    29    30    1
    57    11     9   am
    58    91    92    1
    59    91    90    1
    60     8     9    1
    61     8     7    1
    62    30    31    1
    63    92    93    2
    64     9    10    2
    65    27    24    1
    66    22    21    2
    67    82    83    1
    68    24    23    1
    69    24    25    1
    70    19    20    1
    71    23    21   am
    72     2     3    1
    73     2     5    1
    74    21    20    1
    75    93    95    1
    76    93    94    1
    77    99    98    2
    78    97    98    1
    79    97    96    1
    80    89    90    1
    81    89    86    1
    82    88    87    2
    83     3     4    2
    84     3     7   am
    85    83    84    2
    86    26    25    2
    87    87    86    1
    88    25    32   am
    89     6     5    1
    90    85    86    1
    91    44    42    1
    92    32    33    1
    93    40    41    2
    94    40    39    1
    95    38    39    1
    96    38    34   am
    97    42    39    1
    98    42    43    1
    99    33    34    1
   100    33    36    1
   101    34    35    2
   102    36    37    1
