@<TRIPOS>MOLECULE
tmp/2qagB01.pdb
 82 78 0 0 0
SMALL
GASTEIGER

@<TRIPOS>ATOM
      1  N         78.3530   80.8020   -6.5160 N.3    31  THR31      -0.1203
      2  CA        78.6760   80.0150   -7.7000 C.3    31  THR31       0.1994
      3  C         79.7720   78.9970   -7.4040 C.2    31  THR31       0.2618
      4  O         80.9180   79.1670   -7.8190 O.2    31  THR31      -0.2717
      5  CB        79.0900   80.9260   -8.8450 C.3    31  THR31       0.1784
      6  OG1       80.2330   81.6630   -8.4390 O.3    31  THR31      -0.2211
      7  CG2       77.9710   81.8610   -9.2610 C.3    31  THR31       0.0376
      8  N         79.4120   77.9390   -6.6850 N.am   32  GLY32      -0.1942
      9  CA        78.6060   76.8720   -7.2480 C.3    32  GLY32       0.2014
     10  C         78.6360   75.6140   -6.4030 C.2    32  GLY32       0.2639
     11  O         79.4760   74.7380   -6.6060 O.2    32  GLY32      -0.2714
     12  N         77.7150   75.5260   -5.4490 N.am   33  LEU33      -0.1963
     13  CA        77.6870   74.4100   -4.5110 C.3    33  LEU33       0.1728
     14  C         76.7410   73.3130   -4.9860 C.2    33  LEU33       0.2617
     15  O         76.3640   72.4290   -4.2170 O.2    33  LEU33      -0.2715
     16  CB        77.2900   74.8930   -3.1250 C.3    33  LEU33       0.0311
     17  CG        78.1930   75.9480   -2.4990 C.3    33  LEU33       0.0022
     18  CD1       77.6000   76.5010   -1.2210 C.3    33  LEU33       0.0001
     19  CD2       79.5850   75.4100   -2.2240 C.3    33  LEU33       0.0001
     20  N         76.3600   73.3760   -6.2580 N.am   34  GLY34      -0.1940
     21  CA        75.3180   72.5150   -6.7860 C.3    34  GLY34       0.2014
     22  C         73.9580   72.8190   -6.1900 C.2    34  GLY34       0.2642
     23  O         73.3730   71.9870   -5.4980 O.2    34  GLY34      -0.2714
     24  N         73.4530   74.0180   -6.4620 N.am   35  LYS35      -0.1917
     25  CA        72.0290   74.2990   -6.3250 C.3    35  LYS35       0.1944
     26  C         71.2280   73.6480   -7.4480 C.2    35  LYS35       0.2659
     27  O         70.2230   72.9810   -7.2000 O.2    35  LYS35      -0.2711
     28  CB        71.7850   75.8000   -6.2970 C.2    35  LYS35      -0.0002
     29  CG        72.7290   76.6330   -7.0750 C.2    35  LYS35      -0.0270
     30  CD        72.4140   78.0960   -7.4370 C.3    35  LYS35       0.0462
     31  CE        73.6990   78.6780   -8.1060 C.3    35  LYS35       0.1140
     32  NZ        73.4510   79.4560   -9.3660 N.3    35  LYS35      -0.1310
     33  N         71.6800   73.8460   -8.6820 N.am   36  SER36      -0.1933
     34  CA        71.1310   73.1240   -9.8230 C.3    36  SER36       0.2055
     35  C         71.2820   71.6170   -9.6480 C.2    36  SER36       0.2643
     36  O         70.3430   70.8570   -9.8820 O.2    36  SER36      -0.2714
     37  CB        71.8100   73.5740  -11.1180 C.3    36  SER36       0.2130
     38  OG        71.5450   74.9400  -11.3870 O.3    36  SER36      -0.2179
     39  N         72.4710   71.1910   -9.2340 N.am   37  THR37      -0.1950
     40  CA        72.7410   69.7770   -9.0050 C.3    37  THR37       0.1897
     41  C         71.8820   69.2280   -7.8710 C.2    37  THR37       0.2313
     42  O         71.5820   68.0350   -7.8290 O.2    37  THR37      -0.2863
     43  CB        74.2260   69.5320   -8.6750 C.3    37  THR37       0.1794
     44  OG1       74.3290   68.7010   -7.5120 O.3    37  THR37      -0.2208
     45  CG2       74.9380   70.8510   -8.4160 C.3    37  THR37       0.0378
     46  N         72.8470   83.4070   -7.9680 N.3    74  VAL74      -0.1245
     47  CA        74.2960   83.2760   -7.8780 C.3    74  VAL74       0.1561
     48  C         74.9410   84.5830   -7.4280 C.2    74  VAL74       0.2260
     49  O         74.3500   85.6550   -7.5610 O.2    74  VAL74      -0.2867
     50  CB        74.8720   82.8310   -9.2140 C.3    74  VAL74       0.0252
     51  CG1       74.2690   81.5010   -9.6620 C.3    74  VAL74       0.0019
     52  CG2       74.6870   83.9010  -10.2780 C.3    74  VAL74       0.0019
     53  N         77.8820   69.8830   -0.7390 N.3   148  LYS148     -0.1231
     54  CA        78.9750   68.9400   -0.9440 C.3   148  LYS148      0.1693
     55  C         79.2180   68.0970    0.3040 C.2   148  LYS148      0.2592
     56  O         80.3000   68.1350    0.8900 O.2   148  LYS148     -0.2718
     57  CB        80.2560   69.6810   -1.3350 C.3   148  LYS148      0.0285
     58  CG        80.7950   69.3060   -2.7060 C.3   148  LYS148      0.0035
     59  CD        80.4080   70.3380   -3.7520 C.3   148  LYS148      0.0206
     60  CE        81.3330   70.2760   -4.9570 C.3   148  LYS148      0.1093
     61  NZ        81.2690   71.5220   -5.7710 N.3   148  LYS148     -0.1314
     62  N         78.2040   67.3370    0.7050 N.am  149  ALA149     -0.1966
     63  CA        78.1750   66.7370    2.0330 C.3   149  ALA149      0.1728
     64  C         79.3330   65.7630    2.2230 C.2   149  ALA149      0.2616
     65  O         79.6530   65.3750    3.3470 O.2   149  ALA149     -0.2715
     66  CB        76.8460   66.0360    2.2690 C.3   149  ALA149      0.0334
     67  N         79.9580   65.3710    1.1170 N.am  150  ASP150     -0.1971
     68  CA        81.0880   64.4510    1.1600 C.3   150  ASP150      0.1709
     69  C         82.4050   65.2010    1.3230 C.2   150  ASP150      0.2293
     70  O         83.4300   64.8030    0.7700 O.2   150  ASP150     -0.2864
     71  CB        81.1260   63.5900   -0.1040 C.3   150  ASP150      0.1436
     72  CG        80.9850   64.4100   -1.3710 C.2   150  ASP150      0.3671
     73  OD1       80.0390   65.2210   -1.4540 O.co2 150  ASP150     -0.2456
     74  OD2       81.8210   64.2430   -2.2850 O.co2 150  ASP150     -0.2456
     75  N         74.1580   65.4080   -0.1520 N.3   195  ILE195     -0.1245
     76  CA        75.0900   65.0520   -1.2050 C.3   195  ILE195      0.1561
     77  C         74.6900   65.6230   -2.5520 C.2   195  ILE195      0.2260
     78  O         75.1940   65.1980   -3.5910 O.2   195  ILE195     -0.2867
     79  CB        75.2530   63.5260   -1.3410 C.3   195  ILE195      0.0252
     80  CG1       75.9600   62.9980   -0.0400 C.3   195  ILE195      0.0019
     81  CG2       76.0930   63.1930   -2.5630 C.3   195  ILE195      0.0019
     82  CD1       76.4800   61.6120   -0.1340 C.3   195  ILE195      0.0001
@<TRIPOS>BOND
     1    38    37    1
     2    37    34    1
     3    52    50    1
     4    36    35    2
     5    34    35    1
     6    34    33    1
     7    51    50    1
     8    35    39   am
     9    32    31    1
    10     7     5    1
    11    39    40    1
    12    50    47    1
    13    40    43    1
    14    40    41    1
    15     5     6    1
    16     5     2    1
    17    33    26   am
    18    43    45    1
    19    43    44    1
    20    31    30    1
    21    46    47    1
    22    47    48    1
    23    41    42    2
    24     4     3    2
    25     2     3    1
    26     2     1    1
    27    49    48    2
    28    26    27    2
    29    26    25    1
    30    30    29    1
    31     3     8   am
    32     9     8    1
    33     9    10    1
    34    29    28    2
    35    21    20    1
    36    21    22    1
    37    11    10    2
    38    24    25    1
    39    24    22   am
    40    10    12   am
    41    25    28    1
    42    20    14   am
    43    22    23    2
    44    61    60    1
    45    12    13    1
    46    14    13    1
    47    14    15    2
    48    60    59    1
    49    13    16    1
    50    59    58    1
    51    78    77    2
    52    16    17    1
    53    58    57    1
    54    81    79    1
    55    77    76    1
    56    17    19    1
    57    17    18    1
    58    74    72   ar
    59    73    72   ar
    60    72    71    1
    61    79    76    1
    62    79    80    1
    63    57    54    1
    64    76    75    1
    65    54    53    1
    66    54    55    1
    67    82    80    1
    68    71    68    1
    69    55    62   am
    70    55    56    2
    71    62    63    1
    72    70    69    2
    73    67    68    1
    74    67    64   am
    75    68    69    1
    76    63    64    1
    77    63    66    1
    78    64    65    2
