@<TRIPOS>MOLECULE
tmp/2qagC00.pdb
 112 105 0 0 0
SMALL
GASTEIGER

@<TRIPOS>ATOM
      1  N          6.1270   78.3690    5.2470 N.3    25  SER25      -0.1202
      2  CA         6.3660   77.4870    6.3830 C.3    25  SER25       0.2020
      3  C          5.0540   76.9920    6.9830 C.2    25  SER25       0.2619
      4  O          4.6460   77.4340    8.0570 O.2    25  SER25      -0.2717
      5  CB         7.1960   78.2020    7.4510 C.3    25  SER25       0.2103
      6  OG         7.3760   79.5700    7.1260 O.3    25  SER25      -0.2182
      7  N          4.3990   76.0720    6.2830 N.am   26  GLY26      -0.1942
      8  CA         3.5820   75.0610    6.9280 C.3    26  GLY26       0.2014
      9  C          4.2630   73.7080    6.9770 C.2    26  GLY26       0.2639
     10  O          3.9590   72.8800    7.8360 O.2    26  GLY26      -0.2714
     11  N          5.1880   73.4830    6.0500 N.am   27  LEU27      -0.1963
     12  CA         5.2930   72.1990    5.3670 C.3    27  LEU27       0.1728
     13  C          6.7280   71.9190    4.9360 C.2    27  LEU27       0.2617
     14  O          7.0350   71.8950    3.7440 O.2    27  LEU27      -0.2715
     15  CB         4.3590   72.1580    4.1680 C.3    27  LEU27       0.0311
     16  CG         4.7180   73.0150    2.9510 C.3    27  LEU27       0.0022
     17  CD1        4.1640   72.3840    1.6860 C.3    27  LEU27       0.0001
     18  CD2        4.2030   74.4290    3.1260 C.3    27  LEU27       0.0001
     19  N          7.6040   71.7070    5.9130 N.am   28  GLY28      -0.1940
     20  CA         8.5980   70.6530    5.8310 C.3    28  GLY28       0.2014
     21  C          9.9480   71.1640    5.3680 C.2    28  GLY28       0.2639
     22  O         10.8050   70.3880    4.9460 O.2    28  GLY28      -0.2714
     23  N         10.1160   72.4760    5.4410 N.am   29  LYS29      -0.1963
     24  CA        11.4520   73.0550    5.5120 C.3    29  LYS29       0.1728
     25  C         12.1990   72.6750    6.7860 C.2    29  LYS29       0.2617
     26  O         13.3810   72.3360    6.7470 O.2    29  LYS29      -0.2715
     27  CB        11.3790   74.5820    5.4460 C.3    29  LYS29       0.0311
     28  CG        10.8780   75.1230    4.1170 C.3    29  LYS29       0.0038
     29  CD        10.3460   76.5390    4.2620 C.3    29  LYS29       0.0206
     30  CE         8.8560   76.6020    3.9700 C.3    29  LYS29       0.1093
     31  NZ         8.0630   75.8160    4.9560 N.3    29  LYS29      -0.1314
     32  N         11.5210   72.7360    7.9210 N.am   30  SER30      -0.1936
     33  CA        12.1390   72.4900    9.2190 C.3    30  SER30       0.2055
     34  C         12.3020   70.9930    9.4610 C.2    30  SER30       0.2643
     35  O         13.1700   70.5690   10.2240 O.2    30  SER30      -0.2714
     36  CB        11.4350   73.2710   10.3300 C.3    30  SER30       0.2130
     37  OG        11.5660   74.6690   10.1330 O.3    30  SER30      -0.2179
     38  N         11.4630   70.1980    8.8060 N.am   31  THR31      -0.1950
     39  CA        11.8280   68.8360    8.4370 C.3    31  THR31       0.1897
     40  C         13.0700   68.5740    7.5920 C.2    31  THR31       0.2313
     41  O         13.8620   67.6820    7.8950 O.2    31  THR31      -0.2863
     42  CB        10.7310   68.0750    7.6700 C.3    31  THR31       0.1794
     43  OG1       11.3210   67.0070    6.9190 O.3    31  THR31      -0.2208
     44  CG2        9.9980   69.0120    6.7210 C.3    31  THR31       0.0378
     45  N         11.4620   77.6880   13.5190 N.3    45  GLU45      -0.1245
     46  CA        10.5780   78.4010   12.6050 C.3    45  GLU45       0.1567
     47  C          9.2710   78.7860   13.2900 C.2    45  GLU45       0.2260
     48  O          8.2300   78.1750   13.0500 O.2    45  GLU45      -0.2867
     49  CB        10.2920   77.5520   11.3650 C.3    45  GLU45       0.0388
     50  CG         9.3810   78.2230   10.3500 C.3    45  GLU45       0.1160
     51  CD         9.9230   79.5570    9.8740 C.2    45  GLU45       0.3649
     52  OE1       11.1440   79.7850   10.0040 O.co2  45  GLU45      -0.2457
     53  OE2        9.1270   80.3770    9.3690 O.co2  45  GLU45      -0.2457
     54  N         16.9550   80.5140    7.8360 N.3    68  ASP68      -0.1239
     55  CA        15.5770   80.4360    7.3670 C.3    68  ASP68       0.1674
     56  C         14.6870   81.4320    8.1030 C.2    68  ASP68       0.2266
     57  O         14.4710   81.3130    9.3090 O.2    68  ASP68      -0.2867
     58  CB        15.0410   79.0210    7.5290 C.3    68  ASP68       0.1410
     59  CG        13.6120   78.8030    7.1290 C.2    68  ASP68       0.3668
     60  OD1       12.9940   79.5920    6.3620 O.co2  68  ASP68      -0.2456
     61  OD2       13.0470   77.7640    7.5060 O.co2  68  ASP68      -0.2456
     62  N          6.4500   68.5640    0.5350 N.3   136  LYS136     -0.1245
     63  CA         5.3100   67.7150    0.8550 C.3   136  LYS136      0.1561
     64  C          4.9330   66.8300   -0.3290 C.2   136  LYS136      0.2260
     65  O          3.7540   66.5680   -0.5700 O.2   136  LYS136     -0.2867
     66  CB         4.1100   68.5650    1.2790 C.3   136  LYS136      0.0271
     67  CG         4.2140   69.1250    2.6880 C.3   136  LYS136      0.0035
     68  CD         2.8440   69.2460    3.3360 C.3   136  LYS136      0.0206
     69  CE         2.9510   69.2670    4.8520 C.3   136  LYS136      0.1093
     70  NZ         1.6660   69.6630    5.4930 N.3   136  LYS136     -0.1314
     71  N          4.7910   64.0210   -1.2740 N.3   138  ASP138     -0.1239
     72  CA         3.7320   63.0220   -1.3420 C.3   138  ASP138      0.1674
     73  C          2.4190   63.6960   -1.7260 C.2   138  ASP138      0.2266
     74  O          1.4060   63.0290   -1.9400 O.2   138  ASP138     -0.2867
     75  CB         3.5800   62.3340    0.0160 C.3   138  ASP138      0.1410
     76  CG         3.7960   63.2850    1.1780 C.2   138  ASP138      0.3668
     77  OD1        4.8940   63.8740    1.2700 O.co2 138  ASP138     -0.2456
     78  OD2        2.8680   63.4430    1.9980 O.co2 138  ASP138     -0.2456
     79  N         10.4740   64.9870   -0.2900 N.3   173  VAL173     -0.1231
     80  CA         9.5610   64.2300    0.4020 C.3   173  VAL173      0.1692
     81  C          9.8430   64.2730    1.9040 C.2   173  VAL173      0.2589
     82  O         10.6110   63.4750    2.3450 O.2   173  VAL173     -0.2718
     83  CB         9.7330   62.9090   -0.1380 C.3   173  VAL173      0.0266
     84  CG1        9.3580   61.6990    0.7670 C.3   173  VAL173      0.0020
     85  CG2        9.0900   62.7910   -1.5170 C.3   173  VAL173      0.0020
     86  N          9.2380   65.1750    2.6920 N.am  174  GLY174     -0.2014
     87  CA         9.4300   65.2610    4.2130 C.3   174  GLY174      0.1506
     88  C          9.5670   64.0100    5.1590 C.3   174  GLY174      0.2054
     89  O         10.3560   63.8940    6.1850 O.3   174  GLY174     -0.2184
     90  N          8.2160   58.4050    6.1270 N.3   176  ARG176     -0.1245
     91  CA         6.9010   58.7940    6.6200 C.3   176  ARG176      0.1563
     92  C          5.7900   58.1280    5.8140 C.2   176  ARG176      0.2260
     93  O          5.9140   57.9420    4.6040 O.2   176  ARG176     -0.2867
     94  CB         6.7490   60.3070    6.5870 C.3   176  ARG176      0.0307
     95  CG         5.6460   60.8670    7.4680 C.3   176  ARG176      0.0489
     96  CD         5.6230   62.4030    7.3910 C.3   176  ARG176      0.2205
     97  NE         5.7370   62.7940    5.9650 N.pl3 176  ARG176     -0.0865
     98  CZ         4.8500   63.5660    5.3290 C.cat 176  ARG176      0.5346
     99  NH1        3.8220   64.0890    6.0200 N.pl3 176  ARG176      0.1354
    100  NH2        5.0020   63.8210    4.0220 N.pl3 176  ARG176      0.1354
    101  N          1.4290   56.3180    5.7880 N.3   178  TYR178     -0.1241
    102  CA         0.0480   56.7820    5.7350 C.3   178  TYR178      0.1605
    103  C         -0.9520   55.7550    6.2550 C.2   178  TYR178      0.2264
    104  O         -0.5690   54.7410    6.8380 O.2   178  TYR178     -0.2867
    105  CB        -0.2220   57.0780    4.2590 C.3   178  TYR178      0.0534
    106  CG         0.0940   58.4990    3.8510 C.ar  178  TYR178     -0.0201
    107  CD1        0.1790   59.5110    4.7980 C.ar  178  TYR178     -0.0009
    108  CD2        0.3080   58.8290    2.5190 C.ar  178  TYR178     -0.0009
    109  CE1        0.4670   60.8120    4.4300 C.ar  178  TYR178      0.0417
    110  CE2        0.5970   60.1270    2.1420 C.ar  178  TYR178      0.0417
    111  CZ         0.6750   61.1140    3.1010 C.ar  178  TYR178      0.1957
    112  OH         0.9630   62.4080    2.7300 O.3   178  TYR178     -0.2866
@<TRIPOS>BOND
     1    74    73    2
     2    73    72    1
     3    85    83    1
     4    72    71    1
     5    72    75    1
     6    65    64    2
     7    64    63    1
     8    79    80    1
     9    83    80    1
    10    83    84    1
    11    75    76    1
    12    80    81    1
    13    62    63    1
    14    63    66    1
    15    76    77   ar
    16    76    78   ar
    17    66    67    1
    18    17    16    1
    19    81    82    2
    20    81    86   am
    21   110   108   ar
    22   110   111   ar
    23   108   106   ar
    24    67    68    1
    25    86    87    1
    26   112   111    1
    27    16    18    1
    28    16    15    1
    29   111   109   ar
    30    68    69    1
    31    14    13    2
    32   106   105    1
    33   106   107   ar
    34    30    29    1
    35    30    31    1
    36   100    98    1
    37    28    29    1
    38    28    27    1
    39    15    12    1
    40    87    88    1
    41   105   102    1
    42   109   107   ar
    43    93    92    2
    44    69    70    1
    45    13    12    1
    46    13    19   am
    47    22    21    2
    48    88    89    1
    49     1     2    1
    50    98    97    2
    51    98    99    1
    52    12    11    1
    53    21    23   am
    54    21    20    1
    55    23    24    1
    56    27    24    1
    57    24    25    1
    58   102   101    1
    59   102   103    1
    60    92    91    1
    61    20    19    1
    62    97    96    1
    63    11     9   am
    64    90    91    1
    65   103   104    2
    66     7     8    1
    67     7     3   am
    68    60    59   ar
    69     2     3    1
    70     2     5    1
    71    94    91    1
    72    94    95    1
    73    44    42    1
    74    26    25    2
    75    25    32   am
    76    43    42    1
    77     8     9    1
    78     9    10    2
    79     3     4    2
    80     6     5    1
    81    59    61   ar
    82    59    58    1
    83    55    58    1
    84    55    54    1
    85    55    56    1
    86    96    95    1
    87    40    41    2
    88    40    39    1
    89    42    39    1
    90    32    33    1
    91    56    57    2
    92    39    38    1
    93    38    34   am
    94    33    34    1
    95    33    36    1
    96    53    51   ar
    97    34    35    2
    98    51    52   ar
    99    51    50    1
   100    37    36    1
   101    50    49    1
   102    49    46    1
   103    46    47    1
   104    46    45    1
   105    48    47    2
