@<TRIPOS>MOLECULE
tmp/2qasA00.pdb
 141 139 0 0 0
SMALL
GASTEIGER

@<TRIPOS>ATOM
      1  N         45.3670   42.6940   -5.0040 N.3    40  TYR40      -0.1241
      2  CA        46.4620   43.5850   -5.3340 C.3    40  TYR40       0.1605
      3  C         46.0290   44.9390   -4.7890 C.2    40  TYR40       0.2264
      4  O         45.0340   45.5050   -5.2370 O.2    40  TYR40      -0.2867
      5  CB        46.6750   43.6810   -6.8410 C.3    40  TYR40       0.0534
      6  CG        47.4570   42.5270   -7.4210 C.ar   40  TYR40      -0.0201
      7  CD1       46.8630   41.2830   -7.6350 C.ar   40  TYR40      -0.0009
      8  CD2       48.8170   42.6680   -7.7140 C.ar   40  TYR40      -0.0009
      9  CE1       47.5990   40.2020   -8.1210 C.ar   40  TYR40       0.0417
     10  CE2       49.5670   41.5970   -8.2020 C.ar   40  TYR40       0.0417
     11  CZ        48.9530   40.3660   -8.4030 C.ar   40  TYR40       0.1957
     12  OH        49.7070   39.3090   -8.8780 O.3    40  TYR40      -0.2866
     13  N         60.2210   52.8560   -2.2130 N.3    60  TYR60      -0.1241
     14  CA        59.0010   53.1960   -2.9410 C.3    60  TYR60       0.1605
     15  C         58.5310   54.6050   -2.5910 C.2    60  TYR60       0.2264
     16  O         57.6670   54.7940   -1.7310 O.2    60  TYR60      -0.2867
     17  CB        57.9210   52.1660   -2.6240 C.3    60  TYR60       0.0534
     18  CG        58.3070   50.7840   -3.0970 C.ar   60  TYR60      -0.0201
     19  CD1       58.2460   50.4500   -4.4510 C.ar   60  TYR60      -0.0009
     20  CD2       58.8100   49.8330   -2.2060 C.ar   60  TYR60      -0.0009
     21  CE1       58.6800   49.2090   -4.9090 C.ar   60  TYR60       0.0417
     22  CE2       59.2490   48.5880   -2.6550 C.ar   60  TYR60       0.0417
     23  CZ        59.1800   48.2870   -4.0090 C.ar   60  TYR60       0.1957
     24  OH        59.6200   47.0670   -4.4640 O.3    60  TYR60      -0.2866
     25  N         53.0810   52.0620   -4.1750 N.3    64  MET64      -0.1230
     26  CA        53.5740   50.7440   -3.8030 C.3    64  MET64       0.1702
     27  C         52.4300   49.7610   -3.8730 C.2    64  MET64       0.2593
     28  O         51.3700   49.9940   -3.3010 O.2    64  MET64      -0.2718
     29  CB        54.1680   50.7200   -2.3880 C.3    64  MET64       0.0401
     30  CG        54.7850   49.3660   -2.0350 C.3    64  MET64       0.0596
     31  SD        55.6080   49.2350   -0.4100 S.3    64  MET64      -0.1393
     32  CE        55.2230   47.5760    0.0050 C.3    64  MET64       0.0692
     33  N         52.6430   48.6680   -4.5920 N.am   65  THR65      -0.1939
     34  CA        51.6280   47.6390   -4.7060 C.3    65  THR65       0.2028
     35  C         52.0540   46.4310   -3.8900 C.2    65  THR65       0.2642
     36  O         53.2420   46.1100   -3.8050 O.2    65  THR65      -0.2714
     37  CB        51.4270   47.1940   -6.1720 C.3    65  THR65       0.1808
     38  OG1       50.9430   48.3020   -6.9400 O.3    65  THR65      -0.2208
     39  CG2       50.4170   46.0530   -6.2610 C.3    65  THR65       0.0379
     40  N         51.0850   45.7840   -3.2580 N.am   66  ILE66      -0.1963
     41  CA        51.3620   44.5820   -2.4960 C.3    66  ILE66       0.1727
     42  C         50.3320   43.5770   -2.9400 C.2    66  ILE66       0.2616
     43  O         49.2320   43.9460   -3.3340 O.2    66  ILE66      -0.2715
     44  CB        51.2650   44.7980   -0.9500 C.3    66  ILE66       0.0290
     45  CG1       49.8480   45.1820   -0.5390 C.3    66  ILE66       0.0022
     46  CG2       52.2640   45.8550   -0.5100 C.3    66  ILE66       0.0023
     47  CD1       49.7410   45.5120    0.9330 C.3    66  ILE66       0.0001
     48  N         50.6930   42.3050   -2.9070 N.am   67  VAL67      -0.1977
     49  CA        49.7720   41.2690   -3.3110 C.3    67  VAL67       0.1596
     50  C         49.4980   40.4020   -2.0900 C.2    67  VAL67       0.2287
     51  O         50.4220   40.0750   -1.3260 O.2    67  VAL67      -0.2864
     52  CB        50.3620   40.4270   -4.4770 C.3    67  VAL67       0.0276
     53  CG1       51.7050   39.8310   -4.0760 C.3    67  VAL67       0.0022
     54  CG2       49.3900   39.3390   -4.8810 C.3    67  VAL67       0.0022
     55  N         48.1450   36.9450   -1.3940 N.3    69  GLN69      -0.1231
     56  CA        47.7940   35.6730   -1.9970 C.3    69  GLN69       0.1698
     57  C         48.4810   34.5140   -1.2890 C.2    69  GLN69       0.2592
     58  O         47.8730   33.8410   -0.4500 O.2    69  GLN69      -0.2718
     59  CB        48.1800   35.7160   -3.4830 C.3    69  GLN69       0.0381
     60  CG        47.9480   34.4470   -4.3010 C.3    69  GLN69       0.0905
     61  CD        48.1920   34.6680   -5.8110 C.2    69  GLN69       0.2608
     62  OE1       49.2110   35.2380   -6.2200 O.2    69  GLN69      -0.2717
     63  NE2       47.2560   34.2100   -6.6330 N.am   69  GLN69      -0.0878
     64  N         49.7580   34.3030   -1.6110 N.am   70  HIS70      -0.1962
     65  CA        50.5270   33.2070   -1.0320 C.3    70  HIS70       0.1787
     66  C         51.3780   33.5800    0.1600 C.2    70  HIS70       0.2620
     67  O         51.7390   32.7070    0.9450 O.2    70  HIS70      -0.2715
     68  CB        51.4590   32.5980   -2.0850 C.3    70  HIS70       0.0785
     69  CG        50.7550   32.1300   -3.3160 C.ar   70  HIS70       0.0821
     70  ND1       51.0410   32.6280   -4.5700 N.ar   70  HIS70      -0.2267
     71  CD2       49.7570   31.2310   -3.4840 C.ar   70  HIS70       0.1154
     72  CE1       50.2460   32.0590   -5.4590 C.ar   70  HIS70       0.1986
     73  NE2       49.4570   31.2070   -4.8260 N.ar   70  HIS70      -0.2212
     74  N         51.7160   34.8600    0.3040 N.am   71  GLN71      -0.1977
     75  CA        52.6000   35.2420    1.4000 C.3    71  GLN71       0.1601
     76  C         52.2470   36.4770    2.2070 C.2    71  GLN71       0.2287
     77  O         52.7320   37.5790    1.9390 O.2    71  GLN71      -0.2864
     78  CB        54.0310   35.3690    0.8600 C.3    71  GLN71       0.0394
     79  CG        54.5960   34.0400    0.3400 C.3    71  GLN71       0.0908
     80  CD        56.0430   34.1480   -0.1110 C.2    71  GLN71       0.2608
     81  OE1       56.8950   34.6220    0.6330 O.2    71  GLN71      -0.2717
     82  NE2       56.3270   33.7030   -1.3320 N.am   71  GLN71      -0.0878
     83  N         54.4130   41.0060    5.4880 N.3    86  LEU86      -0.1231
     84  CA        54.7590   40.4780    4.1790 C.3    86  LEU86       0.1693
     85  C         56.2800   40.2310    4.1540 C.2    86  LEU86       0.2592
     86  O         56.9980   40.6220    5.0800 O.2    86  LEU86      -0.2718
     87  CB        54.3850   41.4970    3.1060 C.3    86  LEU86       0.0284
     88  CG        52.9400   41.9900    3.0060 C.3    86  LEU86       0.0019
     89  CD1       52.8530   43.0760    1.9450 C.3    86  LEU86       0.0001
     90  CD2       52.0010   40.8250    2.6670 C.3    86  LEU86       0.0001
     91  N         56.7760   39.6050    3.0920 N.am   87  LYS87      -0.1966
     92  CA        58.2050   39.3260    2.9720 C.3    87  LYS87       0.1728
     93  C         58.8390   40.0610    1.8150 C.2    87  LYS87       0.2616
     94  O         58.2860   40.1070    0.7200 O.2    87  LYS87      -0.2715
     95  CB        58.4440   37.8350    2.7710 C.3    87  LYS87       0.0311
     96  CG        58.4630   37.0580    4.0370 C.3    87  LYS87       0.0038
     97  CD        58.7380   35.5980    3.7680 C.3    87  LYS87       0.0206
     98  CE        58.7740   34.8440    5.0830 C.3    87  LYS87       0.1093
     99  NZ        58.5540   33.4120    4.8270 N.3    87  LYS87      -0.1314
    100  N         60.0050   40.6330    2.0620 N.am   88  PHE88      -0.1960
    101  CA        60.7400   41.3540    1.0310 C.3    88  PHE88       0.1771
    102  C         62.1410   40.7580    1.0320 C.2    88  PHE88       0.2620
    103  O         62.8820   40.8930    2.0140 O.2    88  PHE88      -0.2715
    104  CB        60.7720   42.8480    1.3490 C.3    88  PHE88       0.0574
    105  CG        59.4080   43.4510    1.5000 C.ar   88  PHE88      -0.0200
    106  CD1       58.7110   43.3260    2.6890 C.ar   88  PHE88      -0.0042
    107  CD2       58.8000   44.1110    0.4340 C.ar   88  PHE88      -0.0042
    108  CE1       57.4200   43.8520    2.8220 C.ar   88  PHE88      -0.0003
    109  CE2       57.5110   44.6390    0.5530 C.ar   88  PHE88      -0.0003
    110  CZ        56.8200   44.5100    1.7490 C.ar   88  PHE88      -0.0000
    111  N         62.4880   40.0780   -0.0610 N.am   89  GLY89      -0.1940
    112  CA        63.7830   39.4320   -0.1330 C.3    89  GLY89       0.2014
    113  C         63.8850   38.4240    1.0020 C.2    89  GLY89       0.2639
    114  O         64.9140   38.3490    1.6850 O.2    89  GLY89      -0.2714
    115  N         62.8040   37.6710    1.2160 N.am   90  GLY90      -0.1954
    116  CA        62.7670   36.6690    2.2680 C.3    90  GLY90       0.1869
    117  C         62.7040   37.1940    3.6940 C.2    90  GLY90       0.2309
    118  O         62.6230   36.4010    4.6360 O.2    90  GLY90      -0.2863
    119  N         44.3400   51.9700   -5.6970 N.3   104  ARG104     -0.1245
    120  CA        43.8970   50.9500   -6.6320 C.3   104  ARG104      0.1563
    121  C         43.6270   49.6180   -5.9490 C.2   104  ARG104      0.2260
    122  O         44.2870   49.2680   -4.9720 O.2   104  ARG104     -0.2867
    123  CB        44.9350   50.7650   -7.7400 C.3   104  ARG104      0.0307
    124  CG        44.3790   50.0670   -8.9660 C.3   104  ARG104      0.0489
    125  CD        45.4070   49.1670   -9.6230 C.3   104  ARG104      0.2205
    126  NE        44.8420   48.4560  -10.7680 N.pl3 104  ARG104     -0.0865
    127  CZ        45.3780   47.3670  -11.3150 C.cat 104  ARG104      0.5346
    128  NH1       46.5020   46.8560  -10.8170 N.pl3 104  ARG104      0.1354
    129  NH2       44.7900   46.7840  -12.3580 N.pl3 104  ARG104      0.1354
    130  N         42.5210   45.4490   -7.0600 N.3   106  TYR106     -0.1241
    131  CA        42.3390   44.5130   -8.1610 C.3   106  TYR106      0.1605
    132  C         42.3970   43.0470   -7.7330 C.2   106  TYR106      0.2264
    133  O         43.3050   42.6390   -7.0160 O.2   106  TYR106     -0.2867
    134  CB        43.4100   44.7780   -9.2400 C.3   106  TYR106      0.0534
    135  CG        43.2240   43.9720  -10.5120 C.ar  106  TYR106     -0.0201
    136  CD1       42.0510   44.0780  -11.2560 C.ar  106  TYR106     -0.0009
    137  CD2       44.2030   43.0740  -10.9530 C.ar  106  TYR106     -0.0009
    138  CE1       41.8440   43.3130  -12.4080 C.ar  106  TYR106      0.0417
    139  CE2       44.0060   42.2900  -12.1150 C.ar  106  TYR106      0.0417
    140  CZ        42.8220   42.4200  -12.8340 C.ar  106  TYR106      0.1957
    141  OH        42.5950   41.6700  -13.9710 O.3   106  TYR106     -0.2866
@<TRIPOS>BOND
     1   141   140    1
     2   140   138   ar
     3   140   139   ar
     4   138   136   ar
     5   129   127    1
     6   139   137   ar
     7   127   128    1
     8   127   126    2
     9   136   135   ar
    10   137   135   ar
    11   126   125    1
    12   135   134    1
    13   125   124    1
    14   134   131    1
    15   124   123    1
    16    12    11    1
    17    11    10   ar
    18    11     9   ar
    19    10     8   ar
    20   131   132    1
    21   131   130    1
    22     9     7   ar
    23   123   120    1
    24   132   133    2
    25     8     6   ar
    26     7     6   ar
    27     6     5    1
    28    38    37    1
    29     5     2    1
    30    63    61   am
    31   120   121    1
    32   120   119    1
    33    39    37    1
    34    62    61    2
    35    37    34    1
    36   121   122    2
    37    61    60    1
    38    72    73   ar
    39    72    70   ar
    40     2     1    1
    41     2     3    1
    42     4     3    2
    43    21    19   ar
    44    21    23   ar
    45    54    52    1
    46    73    71   ar
    47    34    33    1
    48    34    35    1
    49    33    27   am
    50    70    69   ar
    51    52    53    1
    52    52    49    1
    53    24    23    1
    54    19    18   ar
    55    60    59    1
    56    25    26    1
    57    23    22   ar
    58    35    36    2
    59    35    40   am
    60    27    26    1
    61    27    28    2
    62    26    29    1
    63    71    69   ar
    64    59    56    1
    65    43    42    2
    66    69    68    1
    67    49    48    1
    68    49    50    1
    69    40    41    1
    70    18    17    1
    71    18    20   ar
    72    14    17    1
    73    14    15    1
    74    14    13    1
    75    42    48   am
    76    42    41    1
    77    22    20   ar
    78    15    16    2
    79    41    44    1
    80    29    30    1
    81    50    51    2
    82    68    65    1
    83    30    31    1
    84    56    55    1
    85    56    57    1
    86    64    57   am
    87    64    65    1
    88    82    80   am
    89    57    58    2
    90    65    66    1
    91    44    45    1
    92    44    46    1
    93    45    47    1
    94    31    32    1
    95   112   111    1
    96   112   113    1
    97    80    79    1
    98    80    81    2
    99   111   102   am
   100    66    74   am
   101    66    67    2
   102    74    75    1
   103    79    78    1
   104   107   109   ar
   105   107   105   ar
   106   109   110   ar
   107    94    93    2
   108    78    75    1
   109   113   115   am
   110   113   114    2
   111   101   102    1
   112   101   104    1
   113   101   100    1
   114   102   103    2
   115   115   116    1
   116   104   105    1
   117    75    76    1
   118   105   106   ar
   119   110   108   ar
   120    93   100   am
   121    93    92    1
   122    77    76    2
   123    89    88    1
   124   116   117    1
   125    90    88    1
   126   106   108   ar
   127    95    92    1
   128    95    96    1
   129    92    91    1
   130    88    87    1
   131    91    85   am
   132    87    84    1
   133   117   118    2
   134    97    96    1
   135    97    98    1
   136    85    84    1
   137    85    86    2
   138    84    83    1
   139    99    98    1
