@<TRIPOS>MOLECULE
tmp/2qb5A00.pdb
 217 203 0 0 0
SMALL
GASTEIGER

@<TRIPOS>ATOM
      1  N        -12.1120   14.6520  -38.8940 N.3   114  ARG114     -0.1245
      2  CA       -11.8420   15.9420  -39.5840 C.3   114  ARG114      0.1563
      3  C        -13.0970   16.6520  -40.0690 C.2   114  ARG114      0.2260
      4  O        -13.1670   17.8680  -40.0250 O.2   114  ARG114     -0.2867
      5  CB       -10.8610   15.8060  -40.7590 C.3   114  ARG114      0.0307
      6  CG        -9.4130   15.6010  -40.3330 C.3   114  ARG114      0.0489
      7  CD        -8.4780   15.7130  -41.5390 C.3   114  ARG114      0.2205
      8  NE        -7.0810   15.6380  -41.1220 N.pl3 114  ARG114     -0.0865
      9  CZ        -6.3550   14.5150  -41.1180 C.cat 114  ARG114      0.5346
     10  NH1       -6.8750   13.3800  -41.5570 N.pl3 114  ARG114      0.1354
     11  NH2       -5.0870   14.5260  -40.6900 N.pl3 114  ARG114      0.1354
     12  N        -13.8400   20.3180  -38.7830 N.3   118  TYR118     -0.1241
     13  CA       -13.9550   21.4410  -39.7000 C.3   118  TYR118      0.1605
     14  C        -15.3140   22.0920  -39.6270 C.2   118  TYR118      0.2264
     15  O        -15.4040   23.3120  -39.7800 O.2   118  TYR118     -0.2867
     16  CB       -13.6980   21.0100  -41.1590 C.3   118  TYR118      0.0534
     17  CG       -12.2670   20.5950  -41.4220 C.ar  118  TYR118     -0.0201
     18  CD1      -11.2810   20.6480  -40.4260 C.ar  118  TYR118     -0.0009
     19  CD2      -11.9260   20.0860  -42.6550 C.ar  118  TYR118     -0.0009
     20  CE1       -9.9590   20.2190  -40.6770 C.ar  118  TYR118      0.0417
     21  CE2      -10.6180   19.6670  -42.9340 C.ar  118  TYR118      0.0417
     22  CZ        -9.6580   19.7270  -41.9630 C.ar  118  TYR118      0.1957
     23  OH        -8.4130   19.2920  -42.2880 O.3   118  TYR118     -0.2866
     24  N        -11.8610   27.7890  -45.0450 N.3   136  PRO136     -0.2116
     25  CA       -11.7660   27.2500  -46.4060 C.3   136  PRO136      0.1372
     26  C        -12.9360   26.2950  -46.6330 C.2   136  PRO136      0.2244
     27  O        -13.2030   25.4440  -45.7690 O.2   136  PRO136     -0.2868
     28  CB       -10.4420   26.4610  -46.4000 C.3   136  PRO136      0.0268
     29  CG        -9.6490   26.9800  -45.2100 C.3   136  PRO136      0.0207
     30  CD       -10.6810   27.4590  -44.2120 C.3   136  PRO136      0.0892
     31  N         -6.9820   19.9850  -51.0430 N.3   163  ILE163     -0.1245
     32  CA        -6.2420   18.8940  -50.3940 C.3   163  ILE163      0.1561
     33  C         -7.2220   17.8290  -49.8640 C.2   163  ILE163      0.2260
     34  O         -8.2790   18.1500  -49.3670 O.2   163  ILE163     -0.2867
     35  CB        -5.3920   19.4050  -49.2420 C.3   163  ILE163      0.0252
     36  CG1       -4.4100   20.4340  -49.7350 C.3   163  ILE163      0.0019
     37  CG2       -4.6680   18.2630  -48.6060 C.3   163  ILE163      0.0019
     38  CD1       -3.4710   20.8930  -48.6440 C.3   163  ILE163      0.0001
     39  N         -7.7930   14.7120  -47.3780 N.3   165  LYS165     -0.1245
     40  CA        -7.2790   14.1970  -46.1530 C.3   165  LYS165      0.1561
     41  C         -8.2520   13.1090  -45.7130 C.2   165  LYS165      0.2260
     42  O         -9.4460   13.1750  -46.0380 O.2   165  LYS165     -0.2867
     43  CB        -7.2350   15.2940  -45.0810 C.3   165  LYS165      0.0271
     44  CG        -6.4850   16.5750  -45.5140 C.3   165  LYS165      0.0035
     45  CD        -6.5700   17.6130  -44.4340 C.3   165  LYS165      0.0206
     46  CE        -6.0500   18.9640  -44.9410 C.3   165  LYS165      0.1093
     47  NZ        -6.0500   20.0280  -43.8130 N.3   165  LYS165     -0.1314
     48  N         -8.7740   11.4380  -38.0080 N.3   169  ALA169     -0.1245
     49  CA        -7.7700   12.4830  -37.8990 C.3   169  ALA169      0.1562
     50  C         -6.4990   12.0410  -37.2250 C.2   169  ALA169      0.2260
     51  O         -5.5640   12.8250  -37.0810 O.2   169  ALA169     -0.2867
     52  CB        -8.3520   13.7380  -37.2470 C.3   169  ALA169      0.0290
     53  N         -2.2730   10.6630  -41.9060 N.3   175  HIS175     -0.1241
     54  CA        -1.4720   11.7970  -42.3650 C.3   175  HIS175      0.1621
     55  C         -1.0940   11.7060  -43.8410 C.2   175  HIS175      0.2264
     56  O         -0.3860   12.5610  -44.3330 O.2   175  HIS175     -0.2867
     57  CB        -0.2630   12.0080  -41.4460 C.3   175  HIS175      0.0745
     58  CG        -0.6470   12.0830  -40.0050 C.ar  175  HIS175      0.0817
     59  ND1       -1.3570   13.1480  -39.4840 N.ar  175  HIS175     -0.2268
     60  CD2       -0.5410   11.1740  -39.0000 C.ar  175  HIS175      0.1154
     61  CE1       -1.6370   12.9140  -38.2130 C.ar  175  HIS175      0.1986
     62  NE2       -1.1430   11.7280  -37.8910 N.ar  175  HIS175     -0.2212
     63  N         -2.0140   12.4250  -47.4680 N.3   177  MET177     -0.1245
     64  CA        -2.8510   13.3960  -48.1200 C.3   177  MET177      0.1570
     65  C         -2.5430   13.4670  -49.6070 C.2   177  MET177      0.2261
     66  O         -1.5450   12.9100  -50.0760 O.2   177  MET177     -0.2867
     67  CB        -2.6020   14.7640  -47.5010 C.3   177  MET177      0.0387
     68  CG        -2.8550   14.7250  -46.0050 C.3   177  MET177      0.0595
     69  SD        -2.7240   16.3150  -45.1910 S.3   177  MET177     -0.1393
     70  CE        -3.4150   15.7450  -43.6250 C.3   177  MET177      0.0692
     71  N        -10.5830   19.9160  -48.9460 N.3   195  GLN195     -0.1231
     72  CA       -10.5260   21.2730  -48.4130 C.3   195  GLN195      0.1698
     73  C         -9.7100   22.1180  -49.3470 C.2   195  GLN195      0.2592
     74  O         -8.6040   21.7020  -49.7560 O.2   195  GLN195     -0.2718
     75  CB        -9.8400   21.2440  -47.0470 C.3   195  GLN195      0.0381
     76  CG        -9.7960   22.5910  -46.2930 C.3   195  GLN195      0.0905
     77  CD        -8.9390   22.4580  -45.0600 C.2   195  GLN195      0.2608
     78  OE1       -7.7900   21.9930  -45.1280 O.2   195  GLN195     -0.2717
     79  NE2       -9.4850   22.8500  -43.9290 N.am  195  GLN195     -0.0878
     80  N        -10.2310   23.3010  -49.6690 N.am  196  ASN196     -0.1960
     81  CA        -9.5200   24.2060  -50.5750 C.3   196  ASN196      0.1819
     82  C         -8.1270   24.4890  -50.0730 C.2   196  ASN196      0.2621
     83  O         -7.8990   24.7860  -48.8810 O.2   196  ASN196     -0.2715
     84  CB       -10.2450   25.5230  -50.7890 C.3   196  ASN196      0.1195
     85  CG       -11.4300   25.3800  -51.7290 C.2   196  ASN196      0.2630
     86  OD1      -11.6480   24.3210  -52.3210 O.2   196  ASN196     -0.2716
     87  ND2      -12.2150   26.4290  -51.8390 N.am  196  ASN196     -0.0877
     88  N         -7.1950   24.4030  -51.0130 N.am  197  PHE197     -0.1960
     89  CA        -5.7930   24.7440  -50.7350 C.3   197  PHE197      0.1771
     90  C         -5.6760   26.2610  -50.6410 C.2   197  PHE197      0.2619
     91  O         -6.1130   26.9840  -51.5180 O.2   197  PHE197     -0.2715
     92  CB        -4.8500   24.2130  -51.8370 C.3   197  PHE197      0.0574
     93  CG        -3.3970   24.3420  -51.4710 C.ar  197  PHE197     -0.0200
     94  CD1       -2.7030   25.5450  -51.6650 C.ar  197  PHE197     -0.0042
     95  CD2       -2.7430   23.2940  -50.8860 C.ar  197  PHE197     -0.0042
     96  CE1       -1.3370   25.6600  -51.2770 C.ar  197  PHE197     -0.0003
     97  CE2       -1.4110   23.3940  -50.4930 C.ar  197  PHE197     -0.0003
     98  CZ        -0.6970   24.5900  -50.7070 C.ar  197  PHE197     -0.0000
     99  N         -5.0550   26.7310  -49.5710 N.am  198  ILE198     -0.1977
    100  CA        -4.8250   28.1520  -49.3820 C.3   198  ILE198      0.1596
    101  C         -3.3210   28.4380  -49.4650 C.2   198  ILE198      0.2287
    102  O         -2.5570   27.9460  -48.6540 O.2   198  ILE198     -0.2864
    103  CB        -5.3840   28.5960  -47.9960 C.3   198  ILE198      0.0276
    104  CG1       -6.9160   28.3340  -47.8920 C.3   198  ILE198      0.0022
    105  CG2       -5.0170   30.0680  -47.7070 C.3   198  ILE198      0.0022
    106  CD1       -7.7550   28.9840  -49.0090 C.3   198  ILE198      0.0001
    107  N         -0.1430   30.2200  -48.6310 N.3   200  HIS200     -0.1241
    108  CA         0.1330   30.8500  -47.3310 C.3   200  HIS200      0.1621
    109  C          1.6230   31.0700  -47.0780 C.2   200  HIS200      0.2264
    110  O          2.0550   31.2170  -45.9310 O.2   200  HIS200     -0.2867
    111  CB        -0.5080   30.0290  -46.2040 C.3   200  HIS200      0.0745
    112  CG         0.0030   28.6110  -46.1200 C.ar  200  HIS200      0.0817
    113  ND1       -0.4420   27.6030  -46.9570 N.ar  200  HIS200     -0.2268
    114  CD2        0.9200   28.0360  -45.2960 C.ar  200  HIS200      0.1154
    115  CE1        0.2010   26.4820  -46.6770 C.ar  200  HIS200      0.1986
    116  NE2        1.0370   26.7190  -45.6830 N.ar  200  HIS200     -0.2212
    117  N          3.6880   27.6610  -41.4360 N.3   204  LEU204     -0.1245
    118  CA         2.6000   27.1740  -40.6170 C.3   204  LEU204      0.1561
    119  C          2.7920   27.7700  -39.2250 C.2   204  LEU204      0.2260
    120  O          3.8930   27.7020  -38.6580 O.2   204  LEU204     -0.2867
    121  CB         2.5730   25.6120  -40.5730 C.3   204  LEU204      0.0270
    122  CG         1.6820   25.0650  -39.4370 C.3   204  LEU204      0.0019
    123  CD1        0.2350   25.3410  -39.7010 C.3   204  LEU204      0.0001
    124  CD2        1.9260   23.5230  -39.2860 C.3   204  LEU204      0.0001
    125  N          1.7940   26.9390  -35.6950 N.3   206  LYS206     -0.1245
    126  CA         1.1470   25.9790  -34.7830 C.3   206  LYS206      0.1561
    127  C          0.8510   26.7220  -33.4940 C.2   206  LYS206      0.2260
    128  O          1.7650   27.2020  -32.8230 O.2   206  LYS206     -0.2867
    129  CB         2.0760   24.8230  -34.5100 C.3   206  LYS206      0.0271
    130  CG         2.2500   23.8900  -35.7020 C.3   206  LYS206      0.0035
    131  CD         2.8580   22.5360  -35.2750 C.3   206  LYS206      0.0206
    132  CE         1.7980   21.6060  -34.7510 C.3   206  LYS206      0.1093
    133  NZ         0.9800   20.9730  -35.8380 N.3   206  LYS206     -0.1314
    134  N          5.8310   24.3120  -44.1280 N.3   221  SER221     -0.1202
    135  CA         4.4800   24.0800  -44.5920 C.3   221  SER221      0.2020
    136  C          4.4980   24.0760  -46.0850 C.2   221  SER221      0.2618
    137  O          5.4780   24.4740  -46.7190 O.2   221  SER221     -0.2717
    138  CB         3.5630   25.1930  -44.0750 C.3   221  SER221      0.2103
    139  OG         2.1810   24.8410  -44.1640 O.3   221  SER221     -0.2182
    140  N          3.4030   23.6180  -46.6750 N.am  222  LEU222     -0.1979
    141  CA         3.3650   23.4630  -48.1330 C.3   222  LEU222      0.1596
    142  C          3.5450   24.8010  -48.8230 C.2   222  LEU222      0.2287
    143  O          2.9670   25.8130  -48.4130 O.2   222  LEU222     -0.2864
    144  CB         2.0250   22.8550  -48.5630 C.3   222  LEU222      0.0297
    145  CG         1.8120   21.3980  -48.1320 C.3   222  LEU222      0.0022
    146  CD1        0.3860   20.9850  -48.5820 C.3   222  LEU222      0.0001
    147  CD2        2.8460   20.4570  -48.7120 C.3   222  LEU222      0.0001
    148  N          1.4140   13.0500  -50.4440 N.3   233  PHE233     -0.1241
    149  CA         2.4710   13.2950  -49.4440 C.3   233  PHE233      0.1605
    150  C          2.0010   12.8320  -48.0890 C.2   233  PHE233      0.2264
    151  O          0.8170   12.5140  -47.9110 O.2   233  PHE233     -0.2867
    152  CB         2.8660   14.7760  -49.4200 C.3   233  PHE233      0.0534
    153  CG         1.7960   15.6910  -48.8690 C.ar  233  PHE233     -0.0203
    154  CD1        0.7860   16.1740  -49.7120 C.ar  233  PHE233     -0.0042
    155  CD2        1.7880   16.0600  -47.5250 C.ar  233  PHE233     -0.0042
    156  CE1       -0.2250   17.0670  -49.2080 C.ar  233  PHE233     -0.0003
    157  CE2        0.8050   16.9200  -46.9970 C.ar  233  PHE233     -0.0003
    158  CZ        -0.2040   17.4450  -47.8700 C.ar  233  PHE233     -0.0000
    159  N          1.9280   14.1240  -44.1700 N.3   235  SER235     -0.1217
    160  CA         2.1010   15.3800  -43.5070 C.3   235  SER235      0.1889
    161  C          3.2110   15.3700  -42.4320 C.2   235  SER235      0.2288
    162  O          3.7580   16.4380  -42.1240 O.2   235  SER235     -0.2866
    163  CB         0.7860   15.8410  -42.8920 C.3   235  SER235      0.2089
    164  OG         0.5510   15.1300  -41.6740 O.3   235  SER235     -0.2183
    165  N          6.1920   17.1690  -43.7480 N.3   238  VAL238     -0.1231
    166  CA         5.9030   18.5410  -44.1340 C.3   238  VAL238      0.1692
    167  C          6.0530   19.5780  -42.9980 C.2   238  VAL238      0.2592
    168  O          6.7140   20.5850  -43.2080 O.2   238  VAL238     -0.2718
    169  CB         4.5090   18.6480  -44.8720 C.3   238  VAL238      0.0266
    170  CG1        4.1200   20.1100  -45.1400 C.3   238  VAL238      0.0020
    171  CG2        4.5660   17.8740  -46.2100 C.3   238  VAL238      0.0020
    172  N          5.4270   19.3440  -41.8390 N.am  239  SER239     -0.1952
    173  CA         5.3050   20.3910  -40.8500 C.3   239  SER239      0.1924
    174  C          5.8420   20.0150  -39.4890 C.2   239  SER239      0.2314
    175  O          5.4850   20.6150  -38.4700 O.2   239  SER239     -0.2863
    176  CB         3.8510   20.8830  -40.7890 C.3   239  SER239      0.2116
    177  OG         3.5280   21.5070  -42.0260 O.3   239  SER239     -0.2180
    178  N         -3.7000   24.5970  -36.0340 N.3   284  ASP284     -0.1239
    179  CA        -2.7460   24.9080  -37.0810 C.3   284  ASP284      0.1674
    180  C         -3.3440   26.0410  -37.8890 C.2   284  ASP284      0.2266
    181  O         -4.4500   25.9210  -38.4680 O.2   284  ASP284     -0.2867
    182  CB        -2.5920   23.6950  -37.9760 C.3   284  ASP284      0.1410
    183  CG        -1.7170   22.6080  -37.3600 C.2   284  ASP284      0.3668
    184  OD1       -1.7370   21.5080  -37.9420 O.co2 284  ASP284     -0.2456
    185  OD2       -1.0180   22.8450  -36.3550 O.co2 284  ASP284     -0.2456
    186  N         -2.7940   29.0040  -40.8180 N.3   286  ILE286     -0.1245
    187  CA        -2.0370   29.5870  -41.9070 C.3   286  ILE286      0.1561
    188  C         -2.6330   30.9400  -42.2590 C.2   286  ILE286      0.2260
    189  O         -3.8360   31.1920  -42.0090 O.2   286  ILE286     -0.2867
    190  CB        -2.0170   28.6580  -43.1320 C.3   286  ILE286      0.0252
    191  CG1       -3.4440   28.3220  -43.6210 C.3   286  ILE286      0.0019
    192  CG2       -1.2680   27.3300  -42.7460 C.3   286  ILE286      0.0019
    193  CD1       -3.4640   27.5580  -44.9380 C.3   286  ILE286      0.0001
    194  N         -6.5640   25.0830  -40.2490 N.3   297  ILE297     -0.1231
    195  CA        -6.6640   23.9530  -41.2170 C.3   297  ILE297      0.1692
    196  C         -6.6280   22.5840  -40.5020 C.2   297  ILE297      0.2592
    197  O         -6.8160   21.5340  -41.1200 O.2   297  ILE297     -0.2718
    198  CB        -5.5430   24.0490  -42.3120 C.3   297  ILE297      0.0266
    199  CG1       -4.1730   24.2070  -41.5920 C.3   297  ILE297      0.0019
    200  CG2       -5.8800   25.2720  -43.2420 C.3   297  ILE297      0.0020
    201  CD1       -2.9660   23.7420  -42.2770 C.3   297  ILE297      0.0001
    202  N         -6.4240   22.6110  -39.1930 N.am  298  ASP298     -0.1974
    203  CA        -6.2540   21.3710  -38.4130 C.3   298  ASP298      0.1709
    204  C         -6.4020   21.7950  -36.9380 C.2   298  ASP298      0.2293
    205  O         -5.9300   22.8530  -36.5120 O.2   298  ASP298     -0.2864
    206  CB        -4.8390   20.7920  -38.7090 C.3   298  ASP298      0.1436
    207  CG        -4.5700   19.3990  -38.1120 C.2   298  ASP298      0.3671
    208  OD1       -5.5500   18.6030  -37.9470 O.co2 298  ASP298     -0.2456
    209  OD2       -3.3490   19.1370  -37.8620 O.co2 298  ASP298     -0.2456
    210  N         -5.9220   19.5980  -33.1720 N.3   300  ASN300     -0.1240
    211  CA        -5.4000   18.3190  -32.6760 C.3   300  ASN300      0.1653
    212  C         -5.5190   18.2230  -31.1630 C.2   300  ASN300      0.2266
    213  O         -5.1060   19.1180  -30.4970 O.2   300  ASN300     -0.2867
    214  CB        -3.9060   18.2500  -32.9870 C.3   300  ASN300      0.1155
    215  CG        -3.6150   18.4240  -34.4260 C.2   300  ASN300      0.2627
    216  OD1       -2.8960   19.3540  -34.8430 O.2   300  ASN300     -0.2716
    217  ND2       -4.1950   17.5660  -35.2130 N.am  300  ASN300     -0.0877
@<TRIPOS>BOND
     1    86    85    2
     2    87    85   am
     3    92    93    1
     4    92    89    1
     5    85    84    1
     6    94    93   ar
     7    94    96   ar
     8    91    90    2
     9    93    95   ar
    10    96    98   ar
    11    31    32    1
    12    88    89    1
    13    88    82   am
    14    95    97   ar
    15    84    81    1
    16    89    90    1
    17    98    97   ar
    18    90    99   am
    19    81    82    1
    20    81    80    1
    21   148   149    1
    22    32    33    1
    23    32    35    1
    24    66    65    2
    25    82    83    2
    26    33    34    2
    27    74    73    2
    28    36    35    1
    29    36    38    1
    30   154   156   ar
    31   154   153   ar
    32    80    73   am
    33    65    64    1
    34    99   100    1
    35   101   100    1
    36   101   102    2
    37   149   152    1
    38   149   150    1
    39   152   153    1
    40   100   103    1
    41    73    72    1
    42    35    37    1
    43   156   158   ar
    44   106   104    1
    45    71    72    1
    46   153   155   ar
    47   142   143    2
    48   142   141    1
    49   147   145    1
    50   107   108    1
    51   146   145    1
    52   144   141    1
    53   144   145    1
    54    72    75    1
    55   141   140    1
    56    64    67    1
    57    64    63    1
    58   150   151    2
    59   103   104    1
    60   103   105    1
    61   158   157   ar
    62   155   157   ar
    63    67    68    1
    64    39    40    1
    65   108   109    1
    66   108   111    1
    67   109   110    2
    68    75    76    1
    69   113   115   ar
    70   113   112   ar
    71   137   136    2
    72   115   116   ar
    73   140   136   am
    74    26    25    1
    75    26    27    2
    76    25    28    1
    77    25    24    1
    78    28    29    1
    79    76    77    1
    80   171   169    1
    81   111   112    1
    82    40    41    1
    83    40    43    1
    84   112   114   ar
    85   136   135    1
    86    42    41    2
    87    68    69    1
    88   116   114   ar
    89    44    43    1
    90    44    45    1
    91    29    30    1
    92    69    70    1
    93   170   169    1
    94    78    77    2
    95    77    79   am
    96    24    30    1
    97    46    45    1
    98    46    47    1
    99   193   191    1
   100   169   166    1
   101   135   134    1
   102   135   138    1
   103    56    55    2
   104   159   160    1
   105   139   138    1
   106   166   165    1
   107   166   167    1
   108    55    54    1
   109   191   190    1
   110   160   163    1
   111   160   161    1
   112   200   198    1
   113   168   167    2
   114   190   192    1
   115   190   187    1
   116   167   172   am
   117    21    19   ar
   118    21    22   ar
   119   163   164    1
   120    19    17   ar
   121   161   162    2
   122    54    53    1
   123    54    57    1
   124   198   199    1
   125   198   195    1
   126    23    22    1
   127   201   199    1
   128   188   189    2
   129   188   187    1
   130   177   176    1
   131    22    20   ar
   132   187   186    1
   133   172   173    1
   134    10     9    1
   135     7     8    1
   136     7     6    1
   137    57    58    1
   138   117   118    1
   139    17    16    1
   140    17    18   ar
   141   195   196    1
   142   195   194    1
   143    16    13    1
   144     8     9    2
   145   197   196    2
   146     9    11    1
   147   173   176    1
   148   173   174    1
   149     5     6    1
   150     5     2    1
   151    20    18   ar
   152   118   121    1
   153   118   119    1
   154   121   122    1
   155   196   202   am
   156     3     4    2
   157     3     2    1
   158    58    59   ar
   159    58    60   ar
   160    15    14    2
   161   123   122    1
   162    13    14    1
   163    13    12    1
   164     2     1    1
   165   174   175    2
   166    59    61   ar
   167   122   124    1
   168   119   120    2
   169   202   203    1
   170    60    62   ar
   171   206   203    1
   172   206   207    1
   173   181   180    2
   174   203   204    1
   175    61    62   ar
   176   207   208   ar
   177   207   209   ar
   178    48    49    1
   179   182   183    1
   180   182   179    1
   181   184   183   ar
   182    49    52    1
   183    49    50    1
   184   180   179    1
   185   183   185   ar
   186    50    51    2
   187   179   178    1
   188   204   205    2
   189   133   132    1
   190   130   131    1
   191   130   129    1
   192   125   126    1
   193   131   132    1
   194   217   215   am
   195   216   215    2
   196   126   129    1
   197   126   127    1
   198   215   214    1
   199   127   128    2
   200   210   211    1
   201   214   211    1
   202   211   212    1
   203   212   213    2
