@<TRIPOS>MOLECULE
tmp/2qb8A00.pdb
 111 101 0 0 0
SMALL
GASTEIGER

@<TRIPOS>ATOM
      1  N         40.2250  -20.3430   43.9260 N.3    35  ASP35      -0.1239
      2  CA        40.2470  -18.9780   43.3810 C.3    35  ASP35       0.1674
      3  C         41.0580  -18.9240   42.0860 C.2    35  ASP35       0.2266
      4  O         41.5560  -19.9540   41.6270 O.2    35  ASP35      -0.2867
      5  CB        40.7800  -17.9810   44.4080 C.3    35  ASP35       0.1410
      6  CG        42.2210  -18.2210   44.8010 C.2    35  ASP35       0.3668
      7  OD1       42.8330  -19.2750   44.4950 O.co2  35  ASP35      -0.2456
      8  OD2       42.8510  -17.3620   45.4330 O.co2  35  ASP35      -0.2456
      9  N         51.5940  -19.4450   51.0520 N.3   145  HIS145     -0.1241
     10  CA        50.8730  -19.3320   52.3160 C.3   145  HIS145      0.1621
     11  C         51.7970  -19.7640   53.4470 C.2   145  HIS145      0.2264
     12  O         52.8710  -20.3230   53.2050 O.2   145  HIS145     -0.2867
     13  CB        49.6280  -20.2270   52.3190 C.3   145  HIS145      0.0745
     14  CG        48.5370  -19.7710   51.3990 C.ar  145  HIS145      0.0817
     15  ND1       48.3850  -20.2730   50.1210 N.ar  145  HIS145     -0.2268
     16  CD2       47.5400  -18.8700   51.5720 C.ar  145  HIS145      0.1154
     17  CE1       47.3490  -19.6870   49.5440 C.ar  145  HIS145      0.1986
     18  NE2       46.8130  -18.8410   50.4050 N.ar  145  HIS145     -0.2212
     19  N         50.8390   -6.0780   47.6610 N.3   205  LYS205     -0.1245
     20  CA        51.3830   -7.4150   47.9250 C.3   205  LYS205      0.1561
     21  C         52.4410   -7.8760   46.9170 C.2   205  LYS205      0.2260
     22  O         52.7080   -9.0750   46.7940 O.2   205  LYS205     -0.2867
     23  CB        50.2690   -8.4660   48.0370 C.3   205  LYS205      0.0271
     24  CG        49.1660   -8.1370   49.0290 C.3   205  LYS205      0.0035
     25  CD        49.7100   -7.9330   50.4270 C.3   205  LYS205      0.0206
     26  CE        48.7960   -8.5160   51.5130 C.3   205  LYS205      0.1093
     27  NZ        49.5500   -8.7130   52.7930 N.3   205  LYS205     -0.1314
     28  N         35.0390  -10.3990   39.7870 N.3   247  LYS247     -0.1245
     29  CA        35.2650  -10.9390   41.1330 C.3   247  LYS247      0.1561
     30  C         34.3500  -10.2130   42.1360 C.2   247  LYS247      0.2260
     31  O         33.8180  -10.8190   43.0650 O.2   247  LYS247     -0.2867
     32  CB        36.7300  -10.7780   41.5710 C.3   247  LYS247      0.0271
     33  CG        37.0520  -11.5240   42.8690 C.3   247  LYS247      0.0035
     34  CD        38.5160  -11.4060   43.2660 C.3   247  LYS247      0.0206
     35  CE        38.7470  -11.9360   44.6610 C.3   247  LYS247      0.1093
     36  NZ        40.1800  -11.9420   45.0270 N.3   247  LYS247     -0.1314
     37  N         34.2810  -18.5520   48.3530 N.3   262  ASP262     -0.1239
     38  CA        35.6580  -18.2600   48.7460 C.3   262  ASP262      0.1674
     39  C         35.8160  -18.5820   50.2240 C.2   262  ASP262      0.2266
     40  O         35.9240  -17.6900   51.0740 O.2   262  ASP262     -0.2867
     41  CB        36.0270  -16.8020   48.4410 C.3   262  ASP262      0.1410
     42  CG        37.4990  -16.4990   48.7000 C.2   262  ASP262      0.3668
     43  OD1       38.2440  -17.4230   49.1030 O.co2 262  ASP262     -0.2456
     44  OD2       38.0020  -15.3600   48.5290 O.co2 262  ASP262     -0.2456
     45  N         37.2370  -21.2960   53.4810 N.3   264  LYS264     -0.1245
     46  CA        38.2350  -22.2150   54.0320 C.3   264  LYS264      0.1561
     47  C         37.8000  -22.6740   55.4190 C.2   264  LYS264      0.2260
     48  O         37.2310  -21.8930   56.1980 O.2   264  LYS264     -0.2867
     49  CB        39.6090  -21.5470   54.1180 C.3   264  LYS264      0.0271
     50  CG        40.1730  -21.1950   52.7480 C.3   264  LYS264      0.0035
     51  CD        41.6550  -20.8710   52.7670 C.3   264  LYS264      0.0206
     52  CE        42.1480  -20.5720   51.3420 C.3   264  LYS264      0.1093
     53  NZ        43.4650  -19.9160   51.3530 N.3   264  LYS264     -0.1314
     54  N         35.2570  -15.3570   52.7810 N.3   282  SER282     -0.1217
     55  CA        35.7730  -14.0460   52.4160 C.3   282  SER282      0.1889
     56  C         34.8190  -13.5000   51.3620 C.2   282  SER282      0.2288
     57  O         34.5160  -14.1970   50.3950 O.2   282  SER282     -0.2866
     58  CB        37.2050  -14.1460   51.8840 C.3   282  SER282      0.2089
     59  OG        38.1440  -14.3610   52.9510 O.3   282  SER282     -0.2183
     60  N         34.3380  -12.4190   56.5790 N.3   319  LEU319     -0.1245
     61  CA        35.2770  -11.3280   56.4560 C.3   319  LEU319      0.1561
     62  C         34.9290  -10.5930   55.1710 C.2   319  LEU319      0.2260
     63  O         35.0530  -11.1580   54.0820 O.2   319  LEU319     -0.2867
     64  CB        36.6970  -11.8720   56.3620 C.3   319  LEU319      0.0270
     65  CG        37.1430  -12.7900   57.5040 C.3   319  LEU319      0.0019
     66  CD1       38.4810  -13.4160   57.1470 C.3   319  LEU319      0.0001
     67  CD2       37.2180  -12.0160   58.8230 C.3   319  LEU319      0.0001
     68  N         35.4580   -7.2190   52.6230 N.3   321  SER321     -0.1217
     69  CA        36.3660   -6.1360   52.2900 C.3   321  SER321      0.1889
     70  C         35.8800   -5.4620   51.0310 C.2   321  SER321      0.2288
     71  O         35.3740   -6.1110   50.1340 O.2   321  SER321     -0.2866
     72  CB        37.7850   -6.6470   52.1080 C.3   321  SER321      0.2089
     73  OG        37.8650   -7.5160   51.0030 O.3   321  SER321     -0.2183
     74  N         36.9590   -3.0510   55.9610 N.3   330  ARG330     -0.1245
     75  CA        36.7220   -4.4580   56.2650 C.3   330  ARG330      0.1563
     76  C         35.7160   -4.5840   57.3990 C.2   330  ARG330      0.2260
     77  O         35.6150   -3.7010   58.2480 O.2   330  ARG330     -0.2867
     78  CB        38.0250   -5.1640   56.6430 C.3   330  ARG330      0.0307
     79  CG        38.9030   -5.5120   55.4490 C.3   330  ARG330      0.0489
     80  CD        40.3050   -5.9410   55.8040 C.3   330  ARG330      0.2205
     81  NE        41.2150   -5.7270   54.6730 N.pl3 330  ARG330     -0.0865
     82  CZ        41.4320   -6.6130   53.7020 C.cat 330  ARG330      0.5346
     83  NH1       40.8110   -7.7930   53.6940 N.pl3 330  ARG330      0.1354
     84  NH2       42.2800   -6.3150   52.7250 N.pl3 330  ARG330      0.1354
     85  N         44.0640   -9.6810   56.4350 N.3   376  THR376     -0.1203
     86  CA        43.1690  -10.4940   55.6140 C.3   376  THR376      0.1994
     87  C         42.9020  -11.8000   56.3570 C.2   376  THR376      0.2618
     88  O         43.3380  -11.9650   57.4960 O.2   376  THR376     -0.2717
     89  CB        43.8080  -10.7770   54.2410 C.3   376  THR376      0.1784
     90  OG1       44.9680  -11.6050   54.3970 O.3   376  THR376     -0.2211
     91  CG2       44.3500   -9.4980   53.6040 C.3   376  THR376      0.0376
     92  N         42.1950  -12.7230   55.7190 N.am  377  ARG377     -0.1965
     93  CA        41.9740  -14.0420   56.2960 C.3   377  ARG377      0.1729
     94  C         43.2970  -14.7230   56.6450 C.2   377  ARG377      0.2616
     95  O         43.3680  -15.4800   57.6040 O.2   377  ARG377     -0.2715
     96  CB        41.1960  -14.9220   55.3160 C.3   377  ARG377      0.0348
     97  CG        40.8640  -16.2850   55.8560 C.3   377  ARG377      0.0492
     98  CD        39.8420  -17.0290   55.0140 C.3   377  ARG377      0.2205
     99  NE        40.2270  -17.0530   53.6040 N.pl3 377  ARG377     -0.0865
    100  CZ        39.4140  -17.3970   52.6020 C.cat 377  ARG377      0.5346
    101  NH1       38.1690  -17.7570   52.8500 N.pl3 377  ARG377      0.1354
    102  NH2       39.8500  -17.3800   51.3430 N.pl3 377  ARG377      0.1354
    103  N         44.3380  -14.4610   55.8540 N.am  378  LYS378     -0.1977
    104  CA        45.6630  -15.0330   56.0900 C.3   378  LYS378      0.1596
    105  C         46.2450  -14.6390   57.4710 C.2   378  LYS378      0.2287
    106  O         46.9460  -15.4280   58.0870 O.2   378  LYS378     -0.2864
    107  CB        46.6080  -14.6380   54.9450 C.3   378  LYS378      0.0298
    108  CG        48.0420  -15.1250   55.0770 C.3   378  LYS378      0.0038
    109  CD        48.8460  -14.9020   53.8050 C.3   378  LYS378      0.0206
    110  CE        50.2050  -15.6100   53.8880 C.3   378  LYS378      0.1093
    111  NZ        51.1790  -15.0930   52.8950 N.3   378  LYS378     -0.1314
@<TRIPOS>BOND
     1    28    29    1
     2    29    32    1
     3    29    30    1
     4    32    33    1
     5     4     3    2
     6     3     2    1
     7    30    31    2
     8    33    34    1
     9    34    35    1
    10     2     1    1
    11     2     5    1
    12     5     6    1
    13     7     6   ar
    14    35    36    1
    15     6     8   ar
    16    22    21    2
    17    21    20    1
    18    19    20    1
    19    20    23    1
    20    23    24    1
    21    37    38    1
    22    41    42    1
    23    41    38    1
    24    44    42   ar
    25    42    43   ar
    26    38    39    1
    27    24    25    1
    28    17    15   ar
    29    17    18   ar
    30    15    14   ar
    31    71    70    2
    32    39    40    2
    33    57    56    2
    34    18    16   ar
    35    25    26    1
    36    73    72    1
    37    70    69    1
    38     9    10    1
    39    52    53    1
    40    52    51    1
    41   102   100    1
    42    56    55    1
    43    14    16   ar
    44    14    13    1
    45    26    27    1
    46    58    55    1
    47    58    59    1
    48    72    69    1
    49    69    68    1
    50    10    13    1
    51    10    11    1
    52    55    54    1
    53   100   101    1
    54   100    99    2
    55    84    82    1
    56    50    51    1
    57    50    49    1
    58   111   110    1
    59    12    11    2
    60    45    46    1
    61    99    98    1
    62    91    89    1
    63    83    82    1
    64    82    81    2
    65   109   110    1
    66   109   108    1
    67    46    49    1
    68    46    47    1
    69    63    62    2
    70    89    90    1
    71    89    86    1
    72    81    80    1
    73   107   108    1
    74   107   104    1
    75    98    97    1
    76    62    61    1
    77    96    97    1
    78    96    93    1
    79    47    48    2
    80    79    80    1
    81    79    78    1
    82    86    87    1
    83    86    85    1
    84    92    93    1
    85    92    87   am
    86   103   104    1
    87   103    94   am
    88    74    75    1
    89   104   105    1
    90    75    78    1
    91    75    76    1
    92    93    94    1
    93    87    88    2
    94    64    61    1
    95    64    65    1
    96    61    60    1
    97    94    95    2
    98    66    65    1
    99    76    77    2
   100   105   106    2
   101    65    67    1
