@<TRIPOS>MOLECULE
tmp/2qbpA00.pdb
 187 178 0 0 0
SMALL
GASTEIGER

@<TRIPOS>ATOM
      1  N         57.9710    6.0730    6.7090 N.3    23  ARG23      -0.1231
      2  CA        56.9540    5.3480    5.9580 C.3    23  ARG23       0.1694
      3  C         57.3340    3.8710    5.8540 C.2    23  ARG23       0.2592
      4  O         56.4770    2.9870    5.9290 O.2    23  ARG23      -0.2718
      5  CB        56.7930    5.9370    4.5520 C.3    23  ARG23       0.0321
      6  CG        56.0930    7.2850    4.5070 C.3    23  ARG23       0.0489
      7  CD        55.6710    7.6540    3.0880 C.3    23  ARG23       0.2205
      8  NE        54.8890    8.8880    3.0470 N.pl3  23  ARG23      -0.0865
      9  CZ        54.2930    9.3700    1.9590 C.cat  23  ARG23       0.5346
     10  NH1       54.3850    8.7220    0.8030 N.pl3  23  ARG23       0.1354
     11  NH2       53.5960   10.4990    2.0260 N.pl3  23  ARG23       0.1354
     12  N         58.6280    3.6130    5.6910 N.am   24  HIS24      -0.1976
     13  CA        59.1380    2.2560    5.5670 C.3    24  HIS24       0.1656
     14  C         59.0060    1.4530    6.8630 C.2    24  HIS24       0.2291
     15  O         58.7730    0.2480    6.8250 O.2    24  HIS24      -0.2864
     16  CB        60.6040    2.3020    5.1110 C.3    24  HIS24       0.0771
     17  CG        61.2270    0.9530    4.9040 C.ar   24  HIS24       0.0820
     18  ND1       61.5630    0.1140    5.9480 N.ar   24  HIS24      -0.2267
     19  CD2       61.5810    0.3000    3.7700 C.ar   24  HIS24       0.1154
     20  CE1       62.0980   -0.9950    5.4670 C.ar   24  HIS24       0.1986
     21  NE2       62.1210   -0.9080    4.1480 N.ar   24  HIS24      -0.2212
     22  N         56.8410    2.4290    9.5730 N.3    26  ALA26      -0.1231
     23  CA        55.5240    2.5850   10.1820 C.3    26  ALA26       0.1694
     24  C         54.7730    1.2620   10.3420 C.2    26  ALA26       0.2593
     25  O         54.9580    0.3180    9.5650 O.2    26  ALA26      -0.2718
     26  CB        54.6820    3.5850    9.3710 C.3    26  ALA26       0.0304
     27  N         53.9340    1.2020   11.3710 N.am   27  SER27      -0.1938
     28  CA        53.1420    0.0190   11.6510 C.3    27  SER27       0.2055
     29  C         52.0960   -0.1810   10.5670 C.2    27  SER27       0.2643
     30  O         51.5040    0.7790   10.0680 O.2    27  SER27      -0.2714
     31  CB        52.4490    0.1610   13.0010 C.3    27  SER27       0.2130
     32  OG        53.3950    0.4110   14.0200 O.3    27  SER27      -0.2179
     33  N         51.8720   -1.4390   10.2060 N.am   28  ASP28      -0.1971
     34  CA        50.8910   -1.7790    9.1880 C.3    28  ASP28       0.1709
     35  C         49.8890   -2.7800    9.7380 C.2    28  ASP28       0.2293
     36  O         50.0980   -3.9830    9.6370 O.2    28  ASP28      -0.2864
     37  CB        51.5870   -2.3610    7.9570 C.3    28  ASP28       0.1436
     38  CG        50.6050   -2.7810    6.8780 C.2    28  ASP28       0.3671
     39  OD1       49.6450   -2.0250    6.5950 O.co2  28  ASP28      -0.2456
     40  OD2       50.8080   -3.8750    6.3050 O.co2  28  ASP28      -0.2456
     41  N         38.6970    9.2910    1.6750 N.3    45  TYR45      -0.1241
     42  CA        39.8110    8.8330    0.8590 C.3    45  TYR45       0.1605
     43  C         40.0000    7.3190    0.8960 C.2    45  TYR45       0.2264
     44  O         40.1110    6.7060    1.9610 O.2    45  TYR45      -0.2867
     45  CB        41.0920    9.5090    1.3140 C.3    45  TYR45       0.0534
     46  CG        41.0440   11.0050    1.1910 C.ar   45  TYR45      -0.0201
     47  CD1       41.0380   11.6180   -0.0590 C.ar   45  TYR45      -0.0009
     48  CD2       41.0160   11.8150    2.3270 C.ar   45  TYR45      -0.0009
     49  CE1       41.0110   13.0040   -0.1770 C.ar   45  TYR45       0.0417
     50  CE2       40.9900   13.2020    2.2200 C.ar   45  TYR45       0.0417
     51  CZ        40.9900   13.7900    0.9680 C.ar   45  TYR45       0.1957
     52  OH        40.9840   15.1600    0.8570 O.3    45  TYR45      -0.2866
     53  N         42.5630    5.5380    0.2670 N.3    47  ASP47      -0.1225
     54  CA        43.8020    5.0980    0.8920 C.3    47  ASP47       0.1805
     55  C         44.0970    5.5940    2.3010 C.2    47  ASP47       0.2597
     56  O         45.2320    5.4830    2.7620 O.2    47  ASP47      -0.2718
     57  CB        44.9880    5.4260   -0.0160 C.3    47  ASP47       0.1424
     58  CG        44.8860    4.7450   -1.3730 C.2    47  ASP47       0.3668
     59  OD1       44.3990    3.5960   -1.4110 O.co2  47  ASP47      -0.2456
     60  OD2       45.2900    5.3450   -2.3870 O.co2  47  ASP47      -0.2456
     61  N         43.0960    6.1400    2.9870 N.am   48  VAL48      -0.1980
     62  CA        43.2990    6.6100    4.3530 C.3    48  VAL48       0.1595
     63  C         42.1940    6.0390    5.2350 C.2    48  VAL48       0.2287
     64  O         41.0380    6.4890    5.2020 O.2    48  VAL48      -0.2864
     65  CB        43.2900    8.1470    4.4510 C.3    48  VAL48       0.0276
     66  CG1       43.6230    8.5620    5.8760 C.3    48  VAL48       0.0022
     67  CG2       44.3000    8.7420    3.4850 C.3    48  VAL48       0.0022
     68  N         42.8350    2.0010   11.6780 N.3    51  PHE51      -0.1241
     69  CA        43.1160    0.5940   11.9500 C.3    51  PHE51       0.1605
     70  C         41.9400    0.0980   12.7910 C.2    51  PHE51       0.2264
     71  O         41.3440    0.8740   13.5440 O.2    51  PHE51      -0.2867
     72  CB        44.4010    0.4310   12.7720 C.3    51  PHE51       0.0534
     73  CG        45.6460    0.9000   12.0740 C.ar   51  PHE51      -0.0203
     74  CD1       45.9000    0.5440   10.7550 C.ar   51  PHE51      -0.0042
     75  CD2       46.5960    1.6620   12.7600 C.ar   51  PHE51      -0.0042
     76  CE1       47.0790    0.9330   10.1290 C.ar   51  PHE51      -0.0003
     77  CE2       47.7810    2.0560   12.1400 C.ar   51  PHE51      -0.0003
     78  CZ        48.0200    1.6890   10.8230 C.ar   51  PHE51      -0.0000
     79  N         36.8910   20.0480    0.9770 N.3   119  LYS119     -0.1245
     80  CA        37.7040   19.1430    1.7810 C.3   119  LYS119      0.1561
     81  C         36.9470   18.6760    3.0200 C.2   119  LYS119      0.2260
     82  O         37.4030   17.7870    3.7390 O.2   119  LYS119     -0.2867
     83  CB        39.0150   19.8180    2.1880 C.3   119  LYS119      0.0271
     84  CG        39.9240   20.1620    1.0200 C.3   119  LYS119      0.0035
     85  CD        40.6340   18.9270    0.4900 C.3   119  LYS119      0.0206
     86  CE        41.6830   19.2940   -0.5470 C.3   119  LYS119      0.1093
     87  NZ        42.8980   19.8870    0.0790 N.3   119  LYS119     -0.1314
     88  N         47.0570   23.0270    2.7580 N.3   180  ASP180     -0.1225
     89  CA        46.9900   21.5870    2.6150 C.3   180  ASP180      0.1805
     90  C         48.3200   21.1470    1.9980 C.2   180  ASP180      0.2597
     91  O         48.8230   21.7860    1.0670 O.2   180  ASP180     -0.2718
     92  CB        45.8230   21.2160    1.7050 C.3   180  ASP180      0.1424
     93  CG        45.9070   21.8800    0.3640 C.2   180  ASP180      0.3668
     94  OD1       46.0910   21.1470   -0.6340 O.co2 180  ASP180     -0.2456
     95  OD2       45.7920   23.1250    0.2970 O.co2 180  ASP180     -0.2456
     96  N         48.8920   20.0700    2.5340 N.am  181  PHE181     -0.1976
     97  CA        50.1830   19.5530    2.0650 C.3   181  PHE181      0.1639
     98  C         51.3090   20.5270    2.3840 C.2   181  PHE181      0.2290
     99  O         52.4300   20.3680    1.8940 O.2   181  PHE181     -0.2864
    100  CB        50.1480   19.2970    0.5550 C.3   181  PHE181      0.0560
    101  CG        49.3330   18.1020    0.1690 C.ar  181  PHE181     -0.0200
    102  CD1       49.8700   16.8240    0.2630 C.ar  181  PHE181     -0.0042
    103  CD2       48.0090   18.2500   -0.2320 C.ar  181  PHE181     -0.0042
    104  CE1       49.1030   15.7120   -0.0310 C.ar  181  PHE181     -0.0003
    105  CE2       47.2260   17.1420   -0.5300 C.ar  181  PHE181     -0.0003
    106  CZ        47.7720   15.8710   -0.4290 C.ar  181  PHE181     -0.0000
    107  N         41.9570   17.6720    9.9020 N.3   214  CYS214     -0.1221
    108  CA        41.9280   18.4910    8.6970 C.3   214  CYS214      0.1808
    109  C         41.0120   17.8840    7.6390 C.2   214  CYS214      0.2602
    110  O         39.7920   17.8590    7.8020 O.2   214  CYS214     -0.2717
    111  CB        43.3400   18.6640    8.1330 C.3   214  CYS214      0.0970
    112  SG        44.3840   17.1930    8.2680 S.3   214  CYS214     -0.0800
    113  N         41.6080   17.3960    6.5560 N.am  215  SER215     -0.1938
    114  CA        40.8480   16.7860    5.4720 C.3   215  SER215      0.2055
    115  C         40.8660   15.2640    5.5750 C.2   215  SER215      0.2642
    116  O         39.8180   14.6270    5.6840 O.2   215  SER215     -0.2714
    117  CB        41.4000   17.2280    4.1160 C.3   215  SER215      0.2130
    118  OG        40.4230   17.0900    3.0980 O.3   215  SER215     -0.2179
    119  N         42.0630   14.6880    5.5380 N.am  216  ALA216     -0.1977
    120  CA        42.2220   13.2390    5.6520 C.3   216  ALA216      0.1597
    121  C         42.4630   12.8210    7.1070 C.2   216  ALA216      0.2287
    122  O         42.3590   11.6440    7.4440 O.2   216  ALA216     -0.2864
    123  CB        43.3860   12.7700    4.7910 C.3   216  ALA216      0.0319
    124  N         45.3830   13.1180    8.8110 N.3   218  ILE218     -0.1231
    125  CA        46.7020   12.5280    9.0150 C.3   218  ILE218      0.1692
    126  C         47.8780   13.4550    8.7460 C.2   218  ILE218      0.2593
    127  O         48.8730   13.3870    9.4480 O.2   218  ILE218     -0.2718
    128  CB        46.9030   11.2420    8.1580 C.3   218  ILE218      0.0266
    129  CG1       46.7550   11.5610    6.6750 C.3   218  ILE218      0.0019
    130  CG2       45.9030   10.1840    8.5670 C.3   218  ILE218      0.0020
    131  CD1       47.0750   10.3880    5.7680 C.3   218  ILE218      0.0001
    132  N         47.7650   14.3150    7.7390 N.am  219  GLY219     -0.1942
    133  CA        48.8560   15.2130    7.4020 C.3   219  GLY219      0.2014
    134  C         49.0340   16.3480    8.3880 C.2   219  GLY219      0.2638
    135  O         49.9400   16.3280    9.2330 O.2   219  GLY219     -0.2714
    136  N         48.1740   17.3550    8.2700 N.am  220  ARG220     -0.1977
    137  CA        48.2310   18.4830    9.1780 C.3   220  ARG220      0.1597
    138  C         47.8840   18.0390   10.6060 C.2   220  ARG220      0.2287
    139  O         48.5370   18.4580   11.5550 O.2   220  ARG220     -0.2864
    140  CB        47.2940   19.5900    8.6880 C.3   220  ARG220      0.0334
    141  CG        47.8860   20.4250    7.5570 C.3   220  ARG220      0.0492
    142  CD        46.8710   21.3830    6.9530 C.3   220  ARG220      0.2205
    143  NE        45.8490   20.6680    6.1840 N.pl3 220  ARG220     -0.0865
    144  CZ        44.9290   21.2500    5.4090 C.cat 220  ARG220      0.5346
    145  NH1       44.8830   22.5700    5.2850 N.pl3 220  ARG220      0.1354
    146  NH2       44.0560   20.5010    4.7470 N.pl3 220  ARG220      0.1354
    147  N         51.9790    6.4820   14.8930 N.3   253  ARG253     -0.1245
    148  CA        51.5520    5.7590   13.6990 C.3   253  ARG253      0.1563
    149  C         51.0410    4.3420   13.9730 C.2   253  ARG253      0.2260
    150  O         50.5100    3.6830   13.0770 O.2   253  ARG253     -0.2867
    151  CB        52.6650    5.7380   12.6510 C.3   253  ARG253      0.0307
    152  CG        52.8750    7.0980   11.9830 C.3   253  ARG253      0.0489
    153  CD        53.6390    6.9580   10.6860 C.3   253  ARG253      0.2205
    154  NE        53.7390    8.2070    9.9360 N.pl3 253  ARG253     -0.0865
    155  CZ        53.7470    8.2730    8.6050 C.cat 253  ARG253      0.5346
    156  NH1       53.6500    7.1640    7.8800 N.pl3 253  ARG253      0.1354
    157  NH2       53.8750    9.4400    7.9910 N.pl3 253  ARG253      0.1354
    158  N         47.5140    5.4760   10.4980 N.3   257  MET257     -0.1230
    159  CA        48.5150    5.4990    9.4380 C.3   257  MET257      0.1702
    160  C         48.8240    6.9270    9.0020 C.2   257  MET257      0.2592
    161  O         47.9900    7.8220    9.1380 O.2   257  MET257     -0.2718
    162  CB        48.0430    4.6740    8.2380 C.3   257  MET257      0.0401
    163  CG        46.6640    5.0570    7.7260 C.3   257  MET257      0.0596
    164  SD        46.2800    4.3040    6.1330 S.3   257  MET257     -0.1393
    165  CE        45.5870    2.7380    6.6560 C.3   257  MET257      0.0692
    166  N         50.0280    7.1330    8.4790 N.am  258  GLY258     -0.1957
    167  CA        50.2800    8.2190    7.5500 C.3   258  GLY258      0.1869
    168  C         50.3670    9.5660    8.2420 C.2   258  GLY258      0.2309
    169  O         50.3030   10.6120    7.5960 O.2   258  GLY258     -0.2863
    170  N         52.4830   14.1180    6.3520 N.3   261  GLN261     -0.1245
    171  CA        52.3350   13.7530    4.9480 C.3   261  GLN261      0.1566
    172  C         53.6310   13.9880    4.1780 C.2   261  GLN261      0.2260
    173  O         53.9490   13.2550    3.2420 O.2   261  GLN261     -0.2867
    174  CB        51.1920   14.5420    4.3060 C.3   261  GLN261      0.0367
    175  CG        50.1380   13.6740    3.6380 C.3   261  GLN261      0.0905
    176  CD        50.7420   12.5980    2.7580 C.2   261  GLN261      0.2608
    177  OE1       51.0810   12.8440    1.6010 O.2   261  GLN261     -0.2717
    178  NE2       50.8790   11.3950    3.3030 N.am  261  GLN261     -0.0878
    179  N         56.7230   18.9140    6.4940 N.3   265  GLN265     -0.1245
    180  CA        55.8520   18.9710    7.6580 C.3   265  GLN265      0.1566
    181  C         56.6370   18.4140    8.8480 C.2   265  GLN265      0.2260
    182  O         56.5330   18.9290    9.9610 O.2   265  GLN265     -0.2867
    183  CB        54.5710   18.1590    7.4370 C.3   265  GLN265      0.0367
    184  CG        53.6240   18.7740    6.4240 C.3   265  GLN265      0.0905
    185  CD        52.2940   18.0580    6.3470 C.2   265  GLN265      0.2608
    186  OE1       52.2190   16.8460    6.5300 O.2   265  GLN265     -0.2717
    187  NE2       51.2360   18.8030    6.0550 N.am  265  GLN265     -0.0878
@<TRIPOS>BOND
     1    60    58   ar
     2    59    58   ar
     3    58    57    1
     4    94    93   ar
     5    86    87    1
     6    86    85    1
     7   105   106   ar
     8   105   103   ar
     9   106   104   ar
    10   103   101   ar
    11    49    47   ar
    12    49    51   ar
    13    47    46   ar
    14   104   102   ar
    15    57    54    1
    16   101   102   ar
    17   101   100    1
    18    53    54    1
    19    95    93   ar
    20    93    92    1
    21    85    84    1
    22   100    97    1
    23    10     9    1
    24    52    51    1
    25    42    43    1
    26    42    45    1
    27    42    41    1
    28    54    55    1
    29    43    44    2
    30    51    50   ar
    31    79    80    1
    32    84    83    1
    33    91    90    2
    34    46    45    1
    35    46    48   ar
    36   177   176    2
    37    92    89    1
    38    80    83    1
    39    80    81    1
    40    99    98    2
    41     9    11    1
    42     9     8    2
    43    90    96   am
    44    90    89    1
    45    97    98    1
    46    97    96    1
    47    50    48   ar
    48    55    56    2
    49    55    61   am
    50    89    88    1
    51   176   178   am
    52   176   175    1
    53    61    62    1
    54    81    82    2
    55     8     7    1
    56     7     6    1
    57   118   117    1
    58   173   172    2
    59    67    65    1
    60   175   174    1
    61    19    21   ar
    62    19    17   ar
    63   117   114    1
    64    21    20   ar
    65   172   171    1
    66   174   171    1
    67    62    65    1
    68    62    63    1
    69    65    66    1
    70     6     5    1
    71     5     2    1
    72   146   144    1
    73   123   120    1
    74    17    16    1
    75    17    18   ar
    76   171   170    1
    77    16    13    1
    78    64    63    2
    79   145   144    1
    80   144   143    2
    81    20    18   ar
    82   114   115    1
    83   114   113    1
    84   119   115   am
    85   119   120    1
    86    13    12    1
    87    13    14    1
    88   115   116    2
    89   120   121    1
    90    12     3   am
    91   131   129    1
    92     3     4    2
    93     3     2    1
    94     2     1    1
    95   187   185   am
    96   164   165    1
    97   164   163    1
    98   143   142    1
    99    40    38   ar
   100   185   184    1
   101   185   186    2
   102   184   183    1
   103   179   180    1
   104   113   109   am
   105    39    38   ar
   106   129   128    1
   107    15    14    2
   108    38    37    1
   109   142   141    1
   110   121   122    2
   111   133   132    1
   112   133   134    1
   113   183   180    1
   114   167   168    1
   115   167   166    1
   116   141   140    1
   117   169   168    2
   118   109   110    2
   119   109   108    1
   120   180   181    1
   121   163   162    1
   122   132   126   am
   123   156   155    1
   124    37    34    1
   125   157   155    1
   126   111   112    1
   127   111   108    1
   128   128   130    1
   129   128   125    1
   130   162   159    1
   131   136   134   am
   132   136   137    1
   133   134   135    2
   134   166   160   am
   135   155   154    2
   136   140   137    1
   137   108   107    1
   138   126   125    1
   139   126   127    2
   140   124   125    1
   141   181   182    2
   142   160   161    2
   143   160   159    1
   144   137   138    1
   145    34    35    1
   146    34    33    1
   147    26    23    1
   148   159   158    1
   149    25    24    2
   150    22    23    1
   151    36    35    2
   152   154   153    1
   153    30    29    2
   154    76    74   ar
   155    76    78   ar
   156    23    24    1
   157    33    29   am
   158    24    27   am
   159    29    28    1
   160   138   139    2
   161   153   152    1
   162    74    73   ar
   163    78    77   ar
   164    27    28    1
   165    28    31    1
   166    68    69    1
   167    69    72    1
   168    69    70    1
   169   152   151    1
   170    73    75   ar
   171    73    72    1
   172    77    75   ar
   173   151   148    1
   174    70    71    2
   175    31    32    1
   176   150   149    2
   177   148   149    1
   178   148   147    1
