@<TRIPOS>MOLECULE
tmp/2qbqA00.pdb
 147 138 0 0 0
SMALL
GASTEIGER

@<TRIPOS>ATOM
      1  N         58.2960    6.0980    6.9620 N.3    23  ARG23      -0.1245
      2  CA        57.2860    5.3700    6.2020 C.3    23  ARG23       0.1563
      3  C         57.6340    3.8810    6.1280 C.2    23  ARG23       0.2260
      4  O         56.7560    3.0220    6.2390 O.2    23  ARG23      -0.2867
      5  CB        57.1580    5.9410    4.7850 C.3    23  ARG23       0.0307
      6  CG        56.3510    7.2250    4.7030 C.3    23  ARG23       0.0489
      7  CD        56.0890    7.6410    3.2630 C.3    23  ARG23       0.2205
      8  NE        55.1300    8.7440    3.1780 N.pl3  23  ARG23      -0.0865
      9  CZ        54.7150    9.3050    2.0450 C.cat  23  ARG23       0.5346
     10  NH1       55.1720    8.8750    0.8750 N.pl3  23  ARG23       0.1354
     11  NH2       53.8320   10.2980    2.0800 N.pl3  23  ARG23       0.1354
     12  N         38.5740    9.2770    1.7940 N.3    45  TYR45      -0.1241
     13  CA        39.6610    8.7960    0.9500 C.3    45  TYR45       0.1605
     14  C         39.7620    7.2740    1.0090 C.2    45  TYR45       0.2264
     15  O         39.8230    6.6830    2.0860 O.2    45  TYR45      -0.2867
     16  CB        40.9910    9.4150    1.3930 C.3    45  TYR45       0.0534
     17  CG        41.0200   10.9160    1.2700 C.ar   45  TYR45      -0.0201
     18  CD1       41.1200   11.5310    0.0190 C.ar   45  TYR45      -0.0009
     19  CD2       40.8900   11.7290    2.3970 C.ar   45  TYR45      -0.0009
     20  CE1       41.0850   12.9170   -0.1030 C.ar   45  TYR45       0.0417
     21  CE2       40.8520   13.1180    2.2850 C.ar   45  TYR45       0.0417
     22  CZ        40.9480   13.7020    1.0350 C.ar   45  TYR45       0.1957
     23  OH        40.8790   15.0660    0.9170 O.3    45  TYR45      -0.2866
     24  N         42.2230    5.2790    0.3940 N.3    47  ASP47      -0.1225
     25  CA        43.4400    4.7670    1.0140 C.3    47  ASP47       0.1805
     26  C         43.7560    5.2000    2.4420 C.2    47  ASP47       0.2597
     27  O         44.7870    4.8120    2.9860 O.2    47  ASP47      -0.2718
     28  CB        44.6450    5.0870    0.1210 C.3    47  ASP47       0.1424
     29  CG        44.5290    4.4540   -1.2550 C.2    47  ASP47       0.3668
     30  OD1       43.7800    3.4600   -1.3800 O.co2  47  ASP47      -0.2456
     31  OD2       45.1850    4.9330   -2.2000 O.co2  47  ASP47      -0.2456
     32  N         42.8950    6.0080    3.0490 N.am   48  VAL48      -0.1980
     33  CA        43.1400    6.4480    4.4170 C.3    48  VAL48       0.1595
     34  C         42.0240    5.8880    5.2920 C.2    48  VAL48       0.2287
     35  O         40.8660    6.3150    5.2020 O.2    48  VAL48      -0.2864
     36  CB        43.1860    7.9910    4.5140 C.3    48  VAL48       0.0276
     37  CG1       43.4980    8.4190    5.9460 C.3    48  VAL48       0.0022
     38  CG2       44.2370    8.5350    3.5660 C.3    48  VAL48       0.0022
     39  N         36.9480   19.8880    1.0250 N.3   119  LYS119     -0.1245
     40  CA        37.7570   18.9780    1.8280 C.3   119  LYS119      0.1561
     41  C         37.0040   18.5250    3.0740 C.2   119  LYS119      0.2260
     42  O         37.4410   17.6130    3.7770 O.2   119  LYS119     -0.2867
     43  CB        39.0780   19.6420    2.2230 C.3   119  LYS119      0.0271
     44  CG        39.9510   20.0380    1.0440 C.3   119  LYS119      0.0035
     45  CD        40.5640   18.8180    0.3760 C.3   119  LYS119      0.0206
     46  CE        41.7400   19.2040   -0.5060 C.3   119  LYS119      0.1093
     47  NZ        42.8840   19.7260    0.2920 N.3   119  LYS119     -0.1314
     48  N         47.1450   22.7560    2.8020 N.3   180  ASP180     -0.1225
     49  CA        47.1490   21.3180    2.5670 C.3   180  ASP180      0.1805
     50  C         48.4840   20.8570    1.9900 C.2   180  ASP180      0.2597
     51  O         49.0210   21.4760    1.0720 O.2   180  ASP180     -0.2718
     52  CB        46.0070   20.9250    1.6280 C.3   180  ASP180      0.1424
     53  CG        46.1540   21.5330    0.2470 C.2   180  ASP180      0.3668
     54  OD1       45.8460   22.7320    0.0880 O.co2 180  ASP180     -0.2456
     55  OD2       46.5770   20.8110   -0.6800 O.co2 180  ASP180     -0.2456
     56  N         49.0140   19.7670    2.5350 N.am  181  PHE181     -0.1976
     57  CA        50.3160   19.2590    2.1210 C.3   181  PHE181      0.1639
     58  C         51.4240   20.2570    2.4380 C.2   181  PHE181      0.2290
     59  O         52.5410   20.1410    1.9350 O.2   181  PHE181     -0.2864
     60  CB        50.3140   18.9330    0.6270 C.3   181  PHE181      0.0560
     61  CG        49.4170   17.7860    0.2570 C.ar  181  PHE181     -0.0200
     62  CD1       49.8740   16.4800    0.3340 C.ar  181  PHE181     -0.0042
     63  CD2       48.1180   18.0120   -0.1660 C.ar  181  PHE181     -0.0042
     64  CE1       49.0510   15.4220   -0.0050 C.ar  181  PHE181     -0.0003
     65  CE2       47.2910   16.9590   -0.5060 C.ar  181  PHE181     -0.0003
     66  CZ        47.7590   15.6620   -0.4260 C.ar  181  PHE181     -0.0000
     67  N         41.9970   17.4240    9.8760 N.3   214  CYS214     -0.1221
     68  CA        42.0040   18.2300    8.6610 C.3   214  CYS214      0.1808
     69  C         41.0560   17.6560    7.6130 C.2   214  CYS214      0.2602
     70  O         39.8490   17.5650    7.8380 O.2   214  CYS214     -0.2717
     71  CB        43.4200   18.3280    8.0910 C.3   214  CYS214      0.0970
     72  SG        44.4160   16.8340    8.3050 S.3   214  CYS214     -0.0800
     73  N         41.6100   17.2720    6.4680 N.am  215  SER215     -0.1938
     74  CA        40.8300   16.6300    5.4170 C.3   215  SER215      0.2055
     75  C         40.8670   15.1110    5.5510 C.2   215  SER215      0.2642
     76  O         39.8400   14.4740    5.7840 O.2   215  SER215     -0.2714
     77  CB        41.3430   17.0480    4.0380 C.3   215  SER215      0.2130
     78  OG        40.5150   16.5370    3.0080 O.3   215  SER215     -0.2179
     79  N         42.0570   14.5380    5.4030 N.am  216  ALA216     -0.1977
     80  CA        42.2370   13.0940    5.5440 C.3   216  ALA216      0.1597
     81  C         42.4740   12.6780    7.0010 C.2   216  ALA216      0.2287
     82  O         42.3450   11.5020    7.3400 O.2   216  ALA216     -0.2864
     83  CB        43.4010   12.6270    4.6790 C.3   216  ALA216      0.0319
     84  N         45.4250   12.9380    8.7260 N.3   218  ILE218     -0.1231
     85  CA        46.7360   12.3500    8.9870 C.3   218  ILE218      0.1692
     86  C         47.9240   13.2690    8.7550 C.2   218  ILE218      0.2593
     87  O         48.9030   13.1940    9.4910 O.2   218  ILE218     -0.2718
     88  CB        46.9590   11.0400    8.1640 C.3   218  ILE218      0.0266
     89  CG1       46.8740   11.3210    6.6620 C.3   218  ILE218      0.0019
     90  CG2       45.9120   10.0040    8.5410 C.3   218  ILE218      0.0020
     91  CD1       47.0590   10.0750    5.7930 C.3   218  ILE218      0.0001
     92  N         47.8450   14.1340    7.7440 N.am  219  GLY219     -0.1942
     93  CA        48.9510   15.0270    7.4450 C.3   219  GLY219      0.2014
     94  C         49.0860   16.1490    8.4570 C.2   219  GLY219      0.2638
     95  O         49.9230   16.1010    9.3590 O.2   219  GLY219     -0.2714
     96  N         48.2630   17.1760    8.2910 N.am  220  ARG220     -0.1977
     97  CA        48.2650   18.3090    9.1990 C.3   220  ARG220      0.1597
     98  C         47.9040   17.8790   10.6290 C.2   220  ARG220      0.2287
     99  O         48.5090   18.3450   11.5870 O.2   220  ARG220     -0.2864
    100  CB        47.2940   19.3710    8.6790 C.3   220  ARG220      0.0334
    101  CG        47.8110   20.0780    7.4300 C.3   220  ARG220      0.0492
    102  CD        46.7750   21.0120    6.8270 C.3   220  ARG220      0.2205
    103  NE        45.7920   20.2830    6.0310 N.pl3 220  ARG220     -0.0865
    104  CZ        44.8550   20.8620    5.2830 C.cat 220  ARG220      0.5346
    105  NH1       44.7630   22.1860    5.2240 N.pl3 220  ARG220      0.1354
    106  NH2       44.0140   20.1150    4.5850 N.pl3 220  ARG220      0.1354
    107  N         51.9730    6.3700   14.9800 N.3   253  ARG253     -0.1245
    108  CA        51.5610    5.6330   13.7870 C.3   253  ARG253      0.1563
    109  C         51.0490    4.2150   14.0520 C.2   253  ARG253      0.2260
    110  O         50.5320    3.5580   13.1510 O.2   253  ARG253     -0.2867
    111  CB        52.6940    5.6110   12.7590 C.3   253  ARG253      0.0307
    112  CG        52.7430    6.8850   11.9060 C.3   253  ARG253      0.0489
    113  CD        53.8690    6.8560   10.8850 C.3   253  ARG253      0.2205
    114  NE        53.8470    8.0210   10.0010 N.pl3 253  ARG253     -0.0865
    115  CZ        53.8550    7.9530    8.6690 C.cat 253  ARG253      0.5346
    116  NH1       53.8800    6.7730    8.0590 N.pl3 253  ARG253      0.1354
    117  NH2       53.8550    9.0650    7.9410 N.pl3 253  ARG253      0.1354
    118  N         47.3930    5.3310   10.5010 N.3   257  MET257     -0.1230
    119  CA        48.3770    5.3230    9.4250 C.3   257  MET257      0.1702
    120  C         48.7030    6.7390    8.9640 C.2   257  MET257      0.2592
    121  O         47.8630    7.6360    9.0390 O.2   257  MET257     -0.2718
    122  CB        47.8740    4.4890    8.2450 C.3   257  MET257      0.0401
    123  CG        46.5600    4.9770    7.6560 C.3   257  MET257      0.0596
    124  SD        46.0840    4.0700    6.1720 S.3   257  MET257     -0.1393
    125  CE        45.3600    2.5980    6.8930 C.3   257  MET257      0.0692
    126  N         49.9280    6.9340    8.4870 N.am  258  GLY258     -0.1957
    127  CA        50.2150    7.9830    7.5260 C.3   258  GLY258      0.1869
    128  C         50.4560    9.3260    8.1880 C.2   258  GLY258      0.2309
    129  O         50.3270   10.3730    7.5540 O.2   258  GLY258     -0.2863
    130  N         52.4160   13.9530    6.3540 N.3   261  GLN261     -0.1245
    131  CA        52.3300   13.5620    4.9520 C.3   261  GLN261      0.1566
    132  C         53.6670   13.7540    4.2440 C.2   261  GLN261      0.2260
    133  O         54.0240   12.9830    3.3520 O.2   261  GLN261     -0.2867
    134  CB        51.2380   14.3620    4.2400 C.3   261  GLN261      0.0367
    135  CG        50.2710   13.5100    3.4330 C.3   261  GLN261      0.0905
    136  CD        50.9810   12.5320    2.5170 C.2   261  GLN261      0.2608
    137  OE1       51.6220   12.9280    1.5440 O.2   261  GLN261     -0.2717
    138  NE2       50.8700   11.2450    2.8260 N.am  261  GLN261     -0.0878
    139  N         56.7120   18.7270    6.6170 N.3   265  GLN265     -0.1245
    140  CA        55.8300   18.7690    7.7810 C.3   265  GLN265      0.1566
    141  C         56.6220   18.1850    8.9510 C.2   265  GLN265      0.2260
    142  O         56.5500   18.6930   10.0680 O.2   265  GLN265     -0.2867
    143  CB        54.5450   17.9650    7.5420 C.3   265  GLN265      0.0367
    144  CG        53.6110   18.5960    6.5040 C.3   265  GLN265      0.0905
    145  CD        52.2790   17.8630    6.3460 C.2   265  GLN265      0.2608
    146  OE1       52.1990   16.6400    6.4900 O.2   265  GLN265     -0.2717
    147  NE2       51.2300   18.6130    6.0250 N.am  265  GLN265     -0.0878
@<TRIPOS>BOND
     1    31    29   ar
     2    30    29   ar
     3    29    28    1
     4    55    53   ar
     5    46    47    1
     6    46    45    1
     7    65    66   ar
     8    65    63   ar
     9    66    64   ar
    10    63    61   ar
    11    20    18   ar
    12    20    22   ar
    13    64    62   ar
    14    18    17   ar
    15    54    53   ar
    16    28    25    1
    17    53    52    1
    18    61    62   ar
    19    61    60    1
    20    45    44    1
    21    24    25    1
    22    60    57    1
    23    10     9    1
    24    23    22    1
    25    13    14    1
    26    13    16    1
    27    13    12    1
    28    14    15    2
    29    25    26    1
    30    39    40    1
    31    22    21   ar
    32    44    43    1
    33    51    50    2
    34    17    16    1
    35    17    19   ar
    36   137   136    2
    37    52    49    1
    38    40    43    1
    39    40    41    1
    40    59    58    2
    41    50    56   am
    42    50    49    1
    43     9    11    1
    44     9     8    2
    45    57    58    1
    46    57    56    1
    47    21    19   ar
    48    26    27    2
    49    26    32   am
    50   136   138   am
    51   136   135    1
    52    49    48    1
    53    78    77    1
    54    32    33    1
    55    41    42    2
    56     8     7    1
    57     7     6    1
    58   133   132    2
    59   135   134    1
    60    38    36    1
    61    77    74    1
    62   134   131    1
    63   132   131    1
    64    33    36    1
    65    33    34    1
    66    36    37    1
    67   106   104    1
    68    83    80    1
    69     6     5    1
    70     5     2    1
    71   131   130    1
    72    35    34    2
    73   105   104    1
    74   104   103    2
    75    79    80    1
    76    79    75   am
    77    74    75    1
    78    74    73    1
    79    80    81    1
    80    75    76    2
    81    91    89    1
    82   147   145   am
    83   103   102    1
    84     3     2    1
    85     3     4    2
    86   124   125    1
    87   124   123    1
    88     2     1    1
    89   145   146    2
    90   145   144    1
    91    73    69   am
    92   144   143    1
    93   139   140    1
    94    89    88    1
    95   102   101    1
    96    81    82    2
    97   101   100    1
    98    93    92    1
    99    93    94    1
   100   127   128    1
   101   127   126    1
   102   143   140    1
   103   129   128    2
   104    69    70    2
   105    69    68    1
   106   123   122    1
   107    92    86   am
   108   140   141    1
   109   117   115    1
   110   116   115    1
   111    71    72    1
   112    71    68    1
   113    88    90    1
   114    88    85    1
   115   122   119    1
   116    96    94   am
   117    96    97    1
   118    94    95    2
   119   126   120   am
   120    68    67    1
   121   115   114    2
   122   100    97    1
   123    84    85    1
   124    86    85    1
   125    86    87    2
   126   141   142    2
   127   120   121    2
   128   120   119    1
   129    97    98    1
   130   119   118    1
   131   114   113    1
   132    98    99    2
   133   113   112    1
   134   112   111    1
   135   111   108    1
   136   110   109    2
   137   108   109    1
   138   108   107    1
