@<TRIPOS>MOLECULE
tmp/2qbrA00.pdb
 147 138 0 0 0
SMALL
GASTEIGER

@<TRIPOS>ATOM
      1  N         58.8060    6.1920    7.3770 N.3    23  ARG23      -0.1245
      2  CA        57.7570    5.5190    6.6220 C.3    23  ARG23       0.1563
      3  C         58.0490    4.0190    6.5430 C.2    23  ARG23       0.2260
      4  O         57.1400    3.1890    6.6390 O.2    23  ARG23      -0.2867
      5  CB        57.6500    6.1090    5.2090 C.3    23  ARG23       0.0307
      6  CG        56.7540    7.3370    5.1130 C.3    23  ARG23       0.0489
      7  CD        56.6090    7.8200    3.6770 C.3    23  ARG23       0.2205
      8  NE        55.4940    8.7540    3.5250 N.pl3  23  ARG23      -0.0865
      9  CZ        55.1470    9.3290    2.3750 C.cat  23  ARG23       0.5346
     10  NH1       55.8310    9.0680    1.2680 N.pl3  23  ARG23       0.1354
     11  NH2       54.1120   10.1610    2.3300 N.pl3  23  ARG23       0.1354
     12  N         38.9680    9.4070    2.0740 N.3    45  TYR45      -0.1241
     13  CA        40.0600    8.8920    1.2490 C.3    45  TYR45       0.1605
     14  C         40.1920    7.3670    1.2840 C.2    45  TYR45       0.2264
     15  O         40.2620    6.7510    2.3510 O.2    45  TYR45      -0.2867
     16  CB        41.3790    9.5400    1.6670 C.3    45  TYR45       0.0534
     17  CG        41.3720   11.0360    1.4700 C.ar   45  TYR45      -0.0201
     18  CD1       41.3400   11.5890    0.1880 C.ar   45  TYR45      -0.0009
     19  CD2       41.3510   11.9030    2.5670 C.ar   45  TYR45      -0.0009
     20  CE1       41.2830   12.9730    0.0030 C.ar   45  TYR45       0.0417
     21  CE2       41.2940   13.2830    2.3940 C.ar   45  TYR45       0.0417
     22  CZ        41.2580   13.8130    1.1120 C.ar   45  TYR45       0.1957
     23  OH        41.1760   15.1740    0.9340 O.3    45  TYR45      -0.2866
     24  N         42.7220    5.5270    0.5090 N.3    47  ASP47      -0.1225
     25  CA        43.9860    5.0950    1.1130 C.3    47  ASP47       0.1805
     26  C         44.2740    5.5490    2.5510 C.2    47  ASP47       0.2597
     27  O         45.3630    5.3010    3.0640 O.2    47  ASP47      -0.2718
     28  CB        45.1760    5.5120    0.2300 C.3    47  ASP47       0.1424
     29  CG        45.1270    4.8960   -1.1680 C.2    47  ASP47       0.3668
     30  OD1       44.5830    3.7840   -1.3280 O.co2  47  ASP47      -0.2456
     31  OD2       45.6520    5.5250   -2.1120 O.co2  47  ASP47      -0.2456
     32  N         43.3280    6.2170    3.2020 N.am   48  VAL48      -0.1980
     33  CA        43.5430    6.6700    4.5770 C.3    48  VAL48       0.1595
     34  C         42.4660    6.0700    5.4760 C.2    48  VAL48       0.2287
     35  O         41.3050    6.4900    5.4590 O.2    48  VAL48      -0.2864
     36  CB        43.4990    8.2010    4.6700 C.3    48  VAL48       0.0276
     37  CG1       43.6490    8.6370    6.1160 C.3    48  VAL48       0.0022
     38  CG2       44.6030    8.7990    3.8220 C.3    48  VAL48       0.0022
     39  N         37.5140   19.9480    1.0080 N.3   119  LYS119     -0.1245
     40  CA        38.2630   19.0890    1.9120 C.3   119  LYS119      0.1561
     41  C         37.5100   18.6900    3.1700 C.2   119  LYS119      0.2260
     42  O         37.9250   17.7690    3.8650 O.2   119  LYS119     -0.2867
     43  CB        39.5480   19.7980    2.3400 C.3   119  LYS119      0.0271
     44  CG        40.4480   20.2280    1.2060 C.3   119  LYS119      0.0035
     45  CD        41.0160   19.0360    0.4680 C.3   119  LYS119      0.0206
     46  CE        42.2610   19.4430   -0.3090 C.3   119  LYS119      0.1093
     47  NZ        43.3600   19.9260    0.6100 N.3   119  LYS119     -0.1314
     48  N         47.6520   22.7870    2.8540 N.3   180  ASP180     -0.1225
     49  CA        47.5730   21.3400    2.7490 C.3   180  ASP180      0.1805
     50  C         48.9200   20.8790    2.1820 C.2   180  ASP180      0.2597
     51  O         49.4090   21.4320    1.1930 O.2   180  ASP180     -0.2718
     52  CB        46.4280   20.9480    1.8110 C.3   180  ASP180      0.1424
     53  CG        46.4190   21.7670    0.5300 C.2   180  ASP180      0.3668
     54  OD1       46.2970   23.0110    0.6210 O.co2 180  ASP180     -0.2456
     55  OD2       46.5360   21.1710   -0.5640 O.co2 180  ASP180     -0.2456
     56  N         49.5160   19.8800    2.8250 N.am  181  PHE181     -0.1976
     57  CA        50.8160   19.3470    2.4280 C.3   181  PHE181      0.1639
     58  C         51.8860   20.3780    2.7330 C.2   181  PHE181      0.2290
     59  O         53.0440   20.2040    2.3630 O.2   181  PHE181     -0.2864
     60  CB        50.8340   18.9930    0.9360 C.3   181  PHE181      0.0560
     61  CG        49.9500   17.8310    0.5830 C.ar  181  PHE181     -0.0200
     62  CD1       50.3250   16.5310    0.9130 C.ar  181  PHE181     -0.0042
     63  CD2       48.7240   18.0390   -0.0420 C.ar  181  PHE181     -0.0042
     64  CE1       49.4920   15.4510    0.6280 C.ar  181  PHE181     -0.0003
     65  CE2       47.8800   16.9670   -0.3330 C.ar  181  PHE181     -0.0003
     66  CZ        48.2670   15.6690    0.0040 C.ar  181  PHE181     -0.0000
     67  N         42.0350   17.3350   10.0090 N.3   214  CYS214     -0.1221
     68  CA        42.2470   18.1730    8.8800 C.3   214  CYS214      0.1808
     69  C         41.3790   17.6660    7.7800 C.2   214  CYS214      0.2602
     70  O         40.2370   17.4550    7.9850 O.2   214  CYS214     -0.2717
     71  CB        43.7190   18.2560    8.5060 C.3   214  CYS214      0.0970
     72  SG        44.6160   16.7800    8.6470 S.3   214  CYS214     -0.0800
     73  N         41.9190   17.4370    6.6130 N.am  215  SER215     -0.1938
     74  CA        41.1550   16.7680    5.6100 C.3   215  SER215      0.2055
     75  C         41.2490   15.2850    5.7100 C.2   215  SER215      0.2642
     76  O         40.2650   14.6470    5.8340 O.2   215  SER215     -0.2714
     77  CB        41.5300   17.2500    4.2380 C.3   215  SER215      0.2130
     78  OG        40.6280   16.7570    3.3140 O.3   215  SER215     -0.2179
     79  N         42.4500   14.7450    5.6560 N.am  216  ALA216     -0.1977
     80  CA        42.6350   13.3020    5.8160 C.3   216  ALA216      0.1597
     81  C         42.8470   12.9160    7.2830 C.2   216  ALA216      0.2287
     82  O         42.6560   11.7590    7.6660 O.2   216  ALA216     -0.2864
     83  CB        43.8140   12.8330    4.9770 C.3   216  ALA216      0.0319
     84  N         45.8040   13.1490    9.0430 N.3   218  ILE218     -0.1231
     85  CA        47.0900   12.5250    9.3260 C.3   218  ILE218      0.1692
     86  C         48.2750   13.4480    9.0980 C.2   218  ILE218      0.2593
     87  O         49.2530   13.3830    9.8410 O.2   218  ILE218     -0.2718
     88  CB        47.3100   11.2260    8.4860 C.3   218  ILE218      0.0266
     89  CG1       47.2940   11.5490    6.9950 C.3   218  ILE218      0.0019
     90  CG2       46.2340   10.2000    8.8110 C.3   218  ILE218      0.0020
     91  CD1       47.5040   10.3190    6.0990 C.3   218  ILE218      0.0001
     92  N         48.1850   14.3090    8.0880 N.am  219  GLY219     -0.1942
     93  CA        49.2900   15.2040    7.7810 C.3   219  GLY219      0.2014
     94  C         49.4830   16.3310    8.7800 C.2   219  GLY219      0.2638
     95  O         50.3640   16.2700    9.6630 O.2   219  GLY219     -0.2714
     96  N         48.6580   17.3660    8.6290 N.am  220  ARG220     -0.1977
     97  CA        48.6910   18.5180    9.5140 C.3   220  ARG220      0.1597
     98  C         48.3170   18.0740   10.9290 C.2   220  ARG220      0.2287
     99  O         49.0060   18.4150   11.8910 O.2   220  ARG220     -0.2864
    100  CB        47.7380   19.6010    8.9850 C.3   220  ARG220      0.0334
    101  CG        48.2870   20.2910    7.7290 C.3   220  ARG220      0.0492
    102  CD        47.2890   21.2150    7.0490 C.3   220  ARG220      0.2205
    103  NE        46.2520   20.4790    6.3270 N.pl3 220  ARG220     -0.0865
    104  CZ        45.3420   21.0440    5.5310 C.cat 220  ARG220      0.5346
    105  NH1       45.3360   22.3610    5.3460 N.pl3 220  ARG220      0.1354
    106  NH2       44.4310   20.2920    4.9230 N.pl3 220  ARG220      0.1354
    107  N         52.3360    6.5560   15.2350 N.3   253  ARG253     -0.1245
    108  CA        51.9840    5.8120   14.0660 C.3   253  ARG253      0.1563
    109  C         51.5540    4.3920   14.3010 C.2   253  ARG253      0.2260
    110  O         51.1630    3.7370   13.4000 O.2   253  ARG253     -0.2867
    111  CB        53.0570    5.8750   13.0170 C.3   253  ARG253      0.0307
    112  CG        53.0370    7.1260   12.2290 C.3   253  ARG253      0.0489
    113  CD        53.8680    6.9470   11.0400 C.3   253  ARG253      0.2205
    114  NE        53.9730    8.1050   10.1920 N.pl3 253  ARG253     -0.0865
    115  CZ        54.0880    8.0240    8.8860 C.cat 253  ARG253      0.5346
    116  NH1       54.0650    6.8550    8.3160 N.pl3 253  ARG253      0.1354
    117  NH2       54.2050    9.0940    8.1600 N.pl3 253  ARG253      0.1354
    118  N         47.8620    5.5130   10.7330 N.3   257  MET257     -0.1230
    119  CA        48.8000    5.5590    9.6280 C.3   257  MET257      0.1702
    120  C         49.1090    6.9470    9.1310 C.2   257  MET257      0.2592
    121  O         48.2790    7.7780    9.0990 O.2   257  MET257     -0.2718
    122  CB        48.2880    4.7120    8.4790 C.3   257  MET257      0.0401
    123  CG        46.9110    5.1110    7.9720 C.3   257  MET257      0.0596
    124  SD        46.3900    4.4610    6.4110 S.3   257  MET257     -0.1393
    125  CE        45.8330    2.8870    6.8340 C.3   257  MET257      0.0692
    126  N         50.3350    7.1760    8.7390 N.am  258  GLY258     -0.1957
    127  CA        50.6520    8.2460    7.8320 C.3   258  GLY258      0.1869
    128  C         50.8360    9.5760    8.4950 C.2   258  GLY258      0.2309
    129  O         50.8930   10.5780    7.8500 O.2   258  GLY258     -0.2863
    130  N         53.1120   14.0710    6.7010 N.3   261  GLN261     -0.1245
    131  CA        52.9840   13.6310    5.3160 C.3   261  GLN261      0.1566
    132  C         54.2440   13.9480    4.5180 C.2   261  GLN261      0.2260
    133  O         54.5600   13.2670    3.5430 O.2   261  GLN261     -0.2867
    134  CB        51.7660   14.2830    4.6580 C.3   261  GLN261      0.0367
    135  CG        50.6000   13.3340    4.4340 C.3   261  GLN261      0.0905
    136  CD        50.9970   12.0970    3.6520 C.2   261  GLN261      0.2608
    137  OE1       51.3500   12.1790    2.4760 O.2   261  GLN261     -0.2717
    138  NE2       50.9400   10.9420    4.3040 N.am  261  GLN261     -0.0878
    139  N         57.1690   18.8650    6.9650 N.3   265  GLN265     -0.1245
    140  CA        56.2830   18.9110    8.1230 C.3   265  GLN265      0.1566
    141  C         57.0630   18.3420    9.3080 C.2   265  GLN265      0.2260
    142  O         56.9600   18.8330   10.4310 O.2   265  GLN265     -0.2867
    143  CB        55.0080   18.0900    7.8840 C.3   265  GLN265      0.0367
    144  CG        54.0990   18.6570    6.8090 C.3   265  GLN265      0.0905
    145  CD        52.7650   17.9260    6.7130 C.2   265  GLN265      0.2608
    146  OE1       52.6930   16.7060    6.9160 O.2   265  GLN265     -0.2717
    147  NE2       51.7020   18.6650    6.3820 N.am  265  GLN265     -0.0878
@<TRIPOS>BOND
     1    31    29   ar
     2    30    29   ar
     3    29    28    1
     4    55    53   ar
     5    65    63   ar
     6    65    66   ar
     7    46    45    1
     8    46    47    1
     9    63    61   ar
    10    20    18   ar
    11    20    22   ar
    12    66    64   ar
    13    18    17   ar
    14    28    25    1
    15    45    44    1
    16    24    25    1
    17    53    54   ar
    18    53    52    1
    19    61    62   ar
    20    61    60    1
    21    64    62   ar
    22    23    22    1
    23    60    57    1
    24    39    40    1
    25    22    21   ar
    26    25    26    1
    27    51    50    2
    28    44    43    1
    29    13    14    1
    30    13    16    1
    31    13    12    1
    32    10     9    1
    33    14    15    2
    34    17    16    1
    35    17    19   ar
    36    52    49    1
    37    40    43    1
    38    40    41    1
    39    50    49    1
    40    50    56   am
    41    11     9    1
    42    59    58    2
    43     9     8    2
    44    21    19   ar
    45    57    58    1
    46    57    56    1
    47   137   136    2
    48    26    27    2
    49    26    32   am
    50    49    48    1
    51    41    42    2
    52    32    33    1
    53    78    77    1
    54     8     7    1
    55   133   132    2
    56   136   138   am
    57   136   135    1
    58     7     6    1
    59    38    36    1
    60    77    74    1
    61   135   134    1
    62   132   131    1
    63    33    36    1
    64    33    34    1
    65   134   131    1
    66    36    37    1
    67   106   104    1
    68    83    80    1
    69     6     5    1
    70     5     2    1
    71   131   130    1
    72   105   104    1
    73    35    34    2
    74   104   103    2
    75    74    75    1
    76    74    73    1
    77    79    75   am
    78    79    80    1
    79    75    76    2
    80    80    81    1
    81    91    89    1
    82   103   102    1
    83   147   145   am
    84   124   125    1
    85   124   123    1
    86     3     2    1
    87     3     4    2
    88    73    69   am
    89     2     1    1
    90   145   144    1
    91   145   146    2
    92   144   143    1
    93   139   140    1
    94    89    88    1
    95   102   101    1
    96    81    82    2
    97   101   100    1
    98    69    70    2
    99    69    68    1
   100    93    92    1
   101    93    94    1
   102   127   128    1
   103   127   126    1
   104   129   128    2
   105   143   140    1
   106   123   122    1
   107    92    86   am
   108   140   141    1
   109   117   115    1
   110   116   115    1
   111   122   119    1
   112    88    90    1
   113    88    85    1
   114    71    72    1
   115    71    68    1
   116    96    94   am
   117    96    97    1
   118   126   120   am
   119    94    95    2
   120    68    67    1
   121   115   114    2
   122   100    97    1
   123    84    85    1
   124    86    85    1
   125    86    87    2
   126   121   120    2
   127   120   119    1
   128   141   142    2
   129    97    98    1
   130   119   118    1
   131   114   113    1
   132    98    99    2
   133   113   112    1
   134   112   111    1
   135   111   108    1
   136   110   109    2
   137   108   109    1
   138   108   107    1
