@<TRIPOS>MOLECULE
tmp/2qbsA00.pdb
 147 138 0 0 0
SMALL
GASTEIGER

@<TRIPOS>ATOM
      1  N         58.2420    6.2100    6.9430 N.3    23  ARG23      -0.1245
      2  CA        57.2160    5.4720    6.2150 C.3    23  ARG23       0.1563
      3  C         57.5890    3.9920    6.1350 C.2    23  ARG23       0.2260
      4  O         56.7370    3.1180    6.2890 O.2    23  ARG23      -0.2867
      5  CB        57.0420    6.0370    4.8010 C.3    23  ARG23       0.0307
      6  CG        56.2820    7.3560    4.7430 C.3    23  ARG23       0.0489
      7  CD        55.8330    7.6750    3.3220 C.3    23  ARG23       0.2205
      8  NE        55.0210    8.8880    3.2720 N.pl3  23  ARG23      -0.0865
      9  CZ        54.4110    9.3410    2.1810 C.cat  23  ARG23       0.5346
     10  NH1       54.5210    8.6810    1.0380 N.pl3  23  ARG23       0.1354
     11  NH2       53.6850   10.4520    2.2350 N.pl3  23  ARG23       0.1354
     12  N         38.6440    9.2930    1.8130 N.3    45  TYR45      -0.1241
     13  CA        39.7380    8.8300    0.9650 C.3    45  TYR45       0.1605
     14  C         39.8960    7.3140    1.0250 C.2    45  TYR45       0.2264
     15  O         39.9670    6.7280    2.1040 O.2    45  TYR45      -0.2867
     16  CB        41.0540    9.4810    1.3980 C.3    45  TYR45       0.0534
     17  CG        41.0640   10.9880    1.2810 C.ar   45  TYR45      -0.0201
     18  CD1       41.1500   11.6100    0.0350 C.ar   45  TYR45      -0.0009
     19  CD2       40.9580   11.7950    2.4170 C.ar   45  TYR45      -0.0009
     20  CE1       41.1270   13.0010   -0.0780 C.ar   45  TYR45       0.0417
     21  CE2       40.9310   13.1880    2.3140 C.ar   45  TYR45       0.0417
     22  CZ        41.0130   13.7810    1.0650 C.ar   45  TYR45       0.1957
     23  OH        40.9520   15.1490    0.9540 O.3    45  TYR45      -0.2866
     24  N         42.4560    5.5190    0.4050 N.3    47  ASP47      -0.1225
     25  CA        43.7030    5.0940    1.0290 C.3    47  ASP47       0.1805
     26  C         43.9880    5.5860    2.4470 C.2    47  ASP47       0.2597
     27  O         45.1120    5.4620    2.9280 O.2    47  ASP47      -0.2718
     28  CB        44.8830    5.4450    0.1140 C.3    47  ASP47       0.1424
     29  CG        44.8180    4.7160   -1.2230 C.2    47  ASP47       0.3668
     30  OD1       44.1410    3.6670   -1.3000 O.co2  47  ASP47      -0.2456
     31  OD2       45.4490    5.1790   -2.1940 O.co2  47  ASP47      -0.2456
     32  N         42.9910    6.1520    3.1160 N.am   48  VAL48      -0.1980
     33  CA        43.2020    6.6060    4.4880 C.3    48  VAL48       0.1595
     34  C         42.0910    6.0240    5.3500 C.2    48  VAL48       0.2287
     35  O         40.9410    6.4820    5.3180 O.2    48  VAL48      -0.2864
     36  CB        43.2040    8.1460    4.5970 C.3    48  VAL48       0.0276
     37  CG1       43.4120    8.5660    6.0490 C.3    48  VAL48       0.0022
     38  CG2       44.3130    8.7220    3.7270 C.3    48  VAL48       0.0022
     39  N         37.0160   19.7640    0.9460 N.3   119  LYS119     -0.1245
     40  CA        37.8080   18.9950    1.8830 C.3   119  LYS119      0.1561
     41  C         37.0510   18.5850    3.1280 C.2   119  LYS119      0.2260
     42  O         37.4840   17.7730    3.8530 O.2   119  LYS119     -0.2867
     43  CB        39.0440   19.7620    2.3130 C.3   119  LYS119      0.0271
     44  CG        40.0210   20.1530    1.2290 C.3   119  LYS119      0.0035
     45  CD        40.4970   18.9570    0.4380 C.3   119  LYS119      0.0206
     46  CE        41.7070   19.2490   -0.3630 C.3   119  LYS119      0.1093
     47  NZ        42.8450   19.7220    0.4440 N.3   119  LYS119     -0.1314
     48  N         47.1850   22.7730    2.7800 N.3   180  ASP180     -0.1225
     49  CA        47.1310   21.3230    2.6680 C.3   180  ASP180      0.1805
     50  C         48.4880   20.9140    2.0950 C.2   180  ASP180      0.2597
     51  O         49.0100   21.5750    1.1920 O.2   180  ASP180     -0.2718
     52  CB        46.0150   20.9170    1.7110 C.3   180  ASP180      0.1424
     53  CG        46.0840   21.6700    0.3970 C.2   180  ASP180      0.3668
     54  OD1       45.9400   22.9120    0.4250 O.co2 180  ASP180     -0.2456
     55  OD2       46.2930   21.0290   -0.6570 O.co2 180  ASP180     -0.2456
     56  N         49.0530   19.8340    2.6250 N.am  181  PHE181     -0.1976
     57  CA        50.3570   19.3440    2.1900 C.3   181  PHE181      0.1639
     58  C         51.4290   20.3830    2.5040 C.2   181  PHE181      0.2290
     59  O         52.5670   20.2810    2.0310 O.2   181  PHE181     -0.2864
     60  CB        50.3430   19.0500    0.6880 C.3   181  PHE181      0.0560
     61  CG        49.4420   17.9120    0.3020 C.ar  181  PHE181     -0.0200
     62  CD1       49.8410   16.5940    0.4940 C.ar  181  PHE181     -0.0042
     63  CD2       48.1820   18.1590   -0.2310 C.ar  181  PHE181     -0.0042
     64  CE1       48.9960   15.5400    0.1610 C.ar  181  PHE181     -0.0003
     65  CE2       47.3320   17.1160   -0.5650 C.ar  181  PHE181     -0.0003
     66  CZ        47.7400   15.8030   -0.3680 C.ar  181  PHE181     -0.0000
     67  N         41.8000   17.3100    9.8970 N.3   214  CYS214     -0.1221
     68  CA        41.9150   18.1170    8.7400 C.3   214  CYS214      0.1808
     69  C         41.0140   17.6140    7.6410 C.2   214  CYS214      0.2602
     70  O         39.8720   17.4280    7.8140 O.2   214  CYS214     -0.2717
     71  CB        43.3680   18.1920    8.2900 C.3   214  CYS214      0.0970
     72  SG        44.2950   16.7250    8.4320 S.3   214  CYS214     -0.0800
     73  N         41.5750   17.3380    6.5070 N.am  215  SER215     -0.1938
     74  CA        40.8110   16.6910    5.4840 C.3   215  SER215      0.2055
     75  C         40.8950   15.1750    5.5730 C.2   215  SER215      0.2642
     76  O         39.9100   14.5200    5.7260 O.2   215  SER215     -0.2714
     77  CB        41.2380   17.1990    4.1460 C.3   215  SER215      0.2130
     78  OG        40.3640   16.7520    3.1670 O.3   215  SER215     -0.2179
     79  N         42.1030   14.6500    5.5150 N.am  216  ALA216     -0.1977
     80  CA        42.2840   13.2050    5.6430 C.3   216  ALA216      0.1597
     81  C         42.4850   12.7870    7.0990 C.2   216  ALA216      0.2287
     82  O         42.2970   11.6240    7.4500 O.2   216  ALA216     -0.2864
     83  CB        43.4730   12.7500    4.8000 C.3   216  ALA216      0.0319
     84  N         45.4350   13.0240    8.8820 N.3   218  ILE218     -0.1231
     85  CA        46.7420   12.4200    9.1390 C.3   218  ILE218      0.1692
     86  C         47.9200   13.3490    8.8860 C.2   218  ILE218      0.2593
     87  O         48.9230   13.2720    9.5900 O.2   218  ILE218     -0.2718
     88  CB        46.9650   11.1410    8.2870 C.3   218  ILE218      0.0266
     89  CG1       46.9300   11.4880    6.7980 C.3   218  ILE218      0.0019
     90  CG2       45.8990   10.1020    8.6050 C.3   218  ILE218      0.0020
     91  CD1       47.2270   10.2960    5.8770 C.3   218  ILE218      0.0001
     92  N         47.8030   14.2210    7.8870 N.am  219  GLY219     -0.1942
     93  CA        48.8980   15.1210    7.5610 C.3   219  GLY219      0.2014
     94  C         49.0710   16.2610    8.5460 C.2   219  GLY219      0.2638
     95  O         49.9500   16.2270    9.4210 O.2   219  GLY219     -0.2714
     96  N         48.2440   17.2880    8.3930 N.am  220  ARG220     -0.1977
     97  CA        48.2970   18.4290    9.2950 C.3   220  ARG220      0.1597
     98  C         47.9420   17.9810   10.7160 C.2   220  ARG220      0.2287
     99  O         48.5550   18.4260   11.6840 O.2   220  ARG220     -0.2864
    100  CB        47.3460   19.5230    8.7970 C.3   220  ARG220      0.0334
    101  CG        47.8840   20.2340    7.5540 C.3   220  ARG220      0.0492
    102  CD        46.8520   21.1360    6.8880 C.3   220  ARG220      0.2205
    103  NE        45.8560   20.3760    6.1350 N.pl3 220  ARG220     -0.0865
    104  CZ        44.9010   20.9310    5.3910 C.cat 220  ARG220      0.5346
    105  NH1       44.8080   22.2530    5.2980 N.pl3 220  ARG220      0.1354
    106  NH2       44.0390   20.1660    4.7380 N.pl3 220  ARG220      0.1354
    107  N         52.0260    6.4760   15.0320 N.3   253  ARG253     -0.1245
    108  CA        51.6290    5.7390   13.8350 C.3   253  ARG253      0.1563
    109  C         51.1450    4.3150   14.0890 C.2   253  ARG253      0.2260
    110  O         50.7020    3.6270   13.1680 O.2   253  ARG253     -0.2867
    111  CB        52.7660    5.7340   12.8110 C.3   253  ARG253      0.0307
    112  CG        52.8910    7.0610   12.0560 C.3   253  ARG253      0.0489
    113  CD        53.8080    6.9250   10.8570 C.3   253  ARG253      0.2205
    114  NE        53.8220    8.1180   10.0140 N.pl3 253  ARG253     -0.0865
    115  CZ        53.9280    8.0800    8.6870 C.cat 253  ARG253      0.5346
    116  NH1       54.0190    6.9070    8.0680 N.pl3 253  ARG253      0.1354
    117  NH2       53.9640    9.2040    7.9790 N.pl3 253  ARG253      0.1354
    118  N         47.4130    5.4190   10.4950 N.3   257  MET257     -0.1230
    119  CA        48.4000    5.4290    9.4230 C.3   257  MET257      0.1702
    120  C         48.7300    6.8540    8.9900 C.2   257  MET257      0.2592
    121  O         47.8890    7.7490    9.0750 O.2   257  MET257     -0.2718
    122  CB        47.8990    4.6190    8.2260 C.3   257  MET257      0.0401
    123  CG        46.5070    5.0060    7.7530 C.3   257  MET257      0.0596
    124  SD        46.0640    4.2320    6.1860 S.3   257  MET257     -0.1393
    125  CE        45.4650    2.6410    6.7500 C.3   257  MET257      0.0692
    126  N         49.9590    7.0570    8.5260 N.am  258  GLY258     -0.1957
    127  CA        50.2470    8.1030    7.5620 C.3   258  GLY258      0.1869
    128  C         50.5500    9.4330    8.2240 C.2   258  GLY258      0.2309
    129  O         50.4930   10.4820    7.5830 O.2   258  GLY258     -0.2863
    130  N         52.5020   14.0400    6.4690 N.3   261  GLN261     -0.1245
    131  CA        52.3380   13.6060    5.0870 C.3   261  GLN261      0.1566
    132  C         53.5870   13.9000    4.2640 C.2   261  GLN261      0.2260
    133  O         53.8300   13.2650    3.2380 O.2   261  GLN261     -0.2867
    134  CB        51.1200   14.2830    4.4540 C.3   261  GLN261      0.0367
    135  CG        51.0700   14.1810    2.9390 C.3   261  GLN261      0.0905
    136  CD        50.8900   12.7550    2.4560 C.2   261  GLN261      0.2608
    137  OE1       50.3900   11.8990    3.1860 O.2   261  GLN261     -0.2717
    138  NE2       51.2990   12.4930    1.2200 N.am  261  GLN261     -0.0878
    139  N         56.7970   18.7690    6.6680 N.3   265  GLN265     -0.1245
    140  CA        55.9050   18.8360    7.8200 C.3   265  GLN265      0.1566
    141  C         56.6790   18.2160    8.9850 C.2   265  GLN265      0.2260
    142  O         56.5830   18.6770   10.1210 O.2   265  GLN265     -0.2867
    143  CB        54.5990   18.0690    7.5690 C.3   265  GLN265      0.0367
    144  CG        53.6690   18.7120    6.5390 C.3   265  GLN265      0.0905
    145  CD        52.3460   17.9650    6.3850 C.2   265  GLN265      0.2608
    146  OE1       52.2800   16.7450    6.5640 O.2   265  GLN265     -0.2717
    147  NE2       51.2900   18.6950    6.0360 N.am  265  GLN265     -0.0878
@<TRIPOS>BOND
     1    31    29   ar
     2    30    29   ar
     3    29    28    1
     4    55    53   ar
     5    65    66   ar
     6    65    63   ar
     7    66    64   ar
     8    46    45    1
     9    46    47    1
    10    63    61   ar
    11    20    18   ar
    12    20    22   ar
    13    18    17   ar
    14    28    25    1
    15    64    62   ar
    16    61    62   ar
    17    61    60    1
    18    53    54   ar
    19    53    52    1
    20    24    25    1
    21    45    44    1
    22    60    57    1
    23    39    40    1
    24    23    22    1
    25    13    14    1
    26    13    16    1
    27    13    12    1
    28    14    15    2
    29    25    26    1
    30    10     9    1
    31    22    21   ar
    32    51    50    2
    33   138   136   am
    34    44    43    1
    35    17    16    1
    36    17    19   ar
    37    52    49    1
    38    40    43    1
    39    40    41    1
    40    59    58    2
    41    50    56   am
    42    50    49    1
    43     9    11    1
    44     9     8    2
    45    57    58    1
    46    57    56    1
    47    21    19   ar
    48    26    27    2
    49    26    32   am
    50   136   135    1
    51   136   137    2
    52    49    48    1
    53   135   134    1
    54    32    33    1
    55    41    42    2
    56    78    77    1
    57   133   132    2
    58     8     7    1
    59     7     6    1
    60    38    36    1
    61    77    74    1
    62   132   131    1
    63   134   131    1
    64    33    36    1
    65    33    34    1
    66    36    37    1
    67   106   104    1
    68     6     5    1
    69    83    80    1
    70     5     2    1
    71   131   130    1
    72   105   104    1
    73    35    34    2
    74   104   103    2
    75    74    75    1
    76    74    73    1
    77    79    75   am
    78    79    80    1
    79    75    76    2
    80    80    81    1
    81    91    89    1
    82   147   145   am
    83     3     2    1
    84     3     4    2
    85   103   102    1
    86   124   125    1
    87   124   123    1
    88     2     1    1
    89   145   144    1
    90   145   146    2
    91    73    69   am
    92   144   143    1
    93   139   140    1
    94    89    88    1
    95   102   101    1
    96    81    82    2
    97   101   100    1
    98    93    92    1
    99    93    94    1
   100   127   128    1
   101   127   126    1
   102   143   140    1
   103   129   128    2
   104    69    70    2
   105    69    68    1
   106   123   122    1
   107   140   141    1
   108    92    86   am
   109   117   115    1
   110   116   115    1
   111   122   119    1
   112    88    90    1
   113    88    85    1
   114    71    72    1
   115    71    68    1
   116    96    94   am
   117    96    97    1
   118   126   120   am
   119    94    95    2
   120   115   114    2
   121    68    67    1
   122   100    97    1
   123    84    85    1
   124    86    85    1
   125    86    87    2
   126   141   142    2
   127   120   121    2
   128   120   119    1
   129    97    98    1
   130   119   118    1
   131   114   113    1
   132    98    99    2
   133   113   112    1
   134   112   111    1
   135   111   108    1
   136   110   109    2
   137   108   109    1
   138   108   107    1
