@<TRIPOS>MOLECULE
tmp/2qbuA00.pdb
 150 143 0 0 0
SMALL
GASTEIGER

@<TRIPOS>ATOM
      1  N        -28.3530   43.5940   -0.9680 N.3    12  PRO12      -0.2116
      2  CA       -27.4990   43.5430   -2.1680 C.3    12  PRO12       0.1372
      3  C        -26.8630   44.8640   -2.6410 C.2    12  PRO12       0.2244
      4  O        -26.0320   44.8220   -3.5560 O.2    12  PRO12      -0.2868
      5  CB       -28.4590   43.0180   -3.2390 C.3    12  PRO12       0.0268
      6  CG       -29.8000   43.6340   -2.8280 C.3    12  PRO12       0.0207
      7  CD       -29.7900   43.5470   -1.3150 C.3    12  PRO12       0.0892
      8  N        -22.7450   41.8350    3.2100 N.3   102  LEU102     -0.1231
      9  CA       -23.5350   42.0630    2.0140 C.3   102  LEU102      0.1693
     10  C        -24.6210   40.9730    1.8880 C.2   102  LEU102      0.2593
     11  O        -24.3450   39.8020    2.1310 O.2   102  LEU102     -0.2718
     12  CB       -22.6110   42.0590    0.7880 C.3   102  LEU102      0.0284
     13  CG       -23.1850   42.1520   -0.6240 C.3   102  LEU102      0.0019
     14  CD1      -23.7490   43.5110   -0.8550 C.3   102  LEU102      0.0001
     15  CD2      -22.0840   41.9160   -1.6580 C.3   102  LEU102      0.0001
     16  N        -25.8400   41.3740    1.5250 N.am  103  GLY103     -0.1942
     17  CA       -26.9380   40.4290    1.3760 C.3   103  GLY103      0.2014
     18  C        -27.3860   39.8970    2.7340 C.2   103  GLY103      0.2638
     19  O        -27.7230   40.6500    3.6300 O.2   103  GLY103     -0.2714
     20  N        -27.3770   38.5740    2.8610 N.am  104  ASP104     -0.1971
     21  CA       -27.7440   37.8940    4.0900 C.3   104  ASP104      0.1709
     22  C        -26.5150   37.2050    4.7410 C.2   104  ASP104      0.2293
     23  O        -25.6840   36.6350    4.0240 O.2   104  ASP104     -0.2864
     24  CB       -28.7910   36.8330    3.7620 C.3   104  ASP104      0.1436
     25  CG       -29.2660   36.1160    4.9920 C.2   104  ASP104      0.3671
     26  OD1      -28.6630   35.0810    5.3320 O.co2 104  ASP104     -0.2456
     27  OD2      -30.1960   36.6230    5.6420 O.co2 104  ASP104     -0.2456
     28  N        -25.5520   33.2150    3.9710 N.3   107  ILE107     -0.1231
     29  CA       -25.3960   32.7780    2.5860 C.3   107  ILE107      0.1692
     30  C        -24.0460   33.2250    2.0310 C.2   107  ILE107      0.2592
     31  O        -23.8870   34.3820    1.6560 O.2   107  ILE107     -0.2718
     32  CB       -26.5260   33.3800    1.6610 C.3   107  ILE107      0.0266
     33  CG1      -27.9360   32.9790    2.1240 C.3   107  ILE107      0.0019
     34  CG2      -26.2920   33.0350    0.1890 C.3   107  ILE107      0.0020
     35  CD1      -28.3110   31.5140    1.9000 C.3   107  ILE107      0.0001
     36  N        -23.0840   32.2940    1.9790 N.am  108  TYR108     -0.1962
     37  CA       -21.7180   32.5670    1.4950 C.3   108  TYR108      0.1771
     38  C        -21.1890   33.8650    2.0650 C.2   108  TYR108      0.2620
     39  O        -20.6220   34.6990    1.3510 O.2   108  TYR108     -0.2715
     40  CB       -21.6510   32.5890   -0.0440 C.3   108  TYR108      0.0574
     41  CG       -22.1770   31.3360   -0.6660 C.ar  108  TYR108     -0.0198
     42  CD1      -21.4460   30.1570   -0.6090 C.ar  108  TYR108     -0.0009
     43  CD2      -23.4200   31.3140   -1.2840 C.ar  108  TYR108     -0.0009
     44  CE1      -21.9310   29.0000   -1.1680 C.ar  108  TYR108      0.0417
     45  CE2      -23.9130   30.1570   -1.8420 C.ar  108  TYR108      0.0417
     46  CZ       -23.1610   29.0070   -1.7800 C.ar  108  TYR108      0.1957
     47  OH       -23.6340   27.8630   -2.3350 O.3   108  TYR108     -0.2866
     48  N        -21.3860   34.0460    3.3640 N.am  109  SER109     -0.1950
     49  CA       -20.8900   35.2360    4.0000 C.3   109  SER109      0.1924
     50  C        -19.6240   34.8870    4.7850 C.2   109  SER109      0.2314
     51  O        -19.3010   33.7060    5.0170 O.2   109  SER109     -0.2863
     52  CB       -22.0060   35.8830    4.8340 C.3   109  SER109      0.2116
     53  OG       -21.6390   36.1580    6.1620 O.3   109  SER109     -0.2180
     54  N        -31.0830   38.4670    0.4200 N.3   132  THR132     -0.1203
     55  CA       -29.9640   37.8310   -0.2290 C.3   132  THR132      0.1994
     56  C        -29.9140   38.2170   -1.7100 C.2   132  THR132      0.2618
     57  O        -30.9310   38.5070   -2.3450 O.2   132  THR132     -0.2717
     58  CB       -29.9810   36.2880   -0.0310 C.3   132  THR132      0.1784
     59  OG1      -28.6980   35.7430   -0.3730 O.3   132  THR132     -0.2211
     60  CG2      -31.0710   35.6290   -0.8610 C.3   132  THR132      0.0376
     61  N        -28.7110   38.2270   -2.2580 N.am  133  SER133     -0.1951
     62  CA       -28.5290   38.7190   -3.6130 C.3   133  SER133      0.1924
     63  C        -29.2640   37.9410   -4.6820 C.2   133  SER133      0.2314
     64  O        -29.6950   38.5560   -5.6570 O.2   133  SER133     -0.2863
     65  CB       -27.0400   38.8850   -3.9540 C.3   133  SER133      0.2116
     66  OG       -26.4460   37.6170   -4.1560 O.3   133  SER133     -0.2180
     67  N        -31.7550   39.5660   -7.3190 N.3   137  CYS137     -0.1235
     68  CA       -31.5310   39.4120   -8.7710 C.3   137  CYS137      0.1677
     69  C        -32.7660   38.9510   -9.5280 C.2   137  CYS137      0.2270
     70  O        -33.0730   39.4860  -10.6100 O.2   137  CYS137     -0.2867
     71  CB       -30.3510   38.4840   -9.0820 C.3   137  CYS137      0.0956
     72  SG       -28.7880   39.2160   -8.6510 S.3   137  CYS137     -0.0801
     73  N        -23.5600   31.6810   -8.5630 N.3   175  MET175     -0.1230
     74  CA       -22.9030   32.8510   -7.9690 C.3   175  MET175      0.1702
     75  C        -21.5490   33.0460   -8.6520 C.2   175  MET175      0.2592
     76  O        -21.1880   32.2660   -9.5360 O.2   175  MET175     -0.2718
     77  CB       -22.7200   32.7040   -6.4470 C.3   175  MET175      0.0401
     78  CG       -23.8570   32.0010   -5.6700 C.3   175  MET175      0.0596
     79  SD       -25.2620   33.0230   -5.1350 S.3   175  MET175     -0.1393
     80  CE       -24.6470   33.8750   -3.6780 C.3   175  MET175      0.0692
     81  N        -20.8010   34.0780   -8.2550 N.am  176  LYS176     -0.1980
     82  CA       -19.5310   34.4430   -8.9340 C.3   176  LYS176      0.1596
     83  C        -19.5750   34.1610  -10.4450 C.2   176  LYS176      0.2287
     84  O        -18.6880   33.4940  -10.9900 O.2   176  LYS176     -0.2864
     85  CB       -18.3410   33.7110   -8.2990 C.3   176  LYS176      0.0298
     86  CG       -17.9550   34.1460   -6.8810 C.3   176  LYS176      0.0038
     87  CD       -18.4440   33.1660   -5.8020 C.3   176  LYS176      0.0206
     88  CE       -19.4520   33.8210   -4.8650 C.3   176  LYS176      0.1093
     89  NZ       -19.9100   32.9490   -3.7340 N.3   176  LYS176     -0.1314
     90  N        -27.5200   39.0290  -13.9150 N.3   200  VAL200     -0.1245
     91  CA       -27.6890   40.3430  -13.2940 C.3   200  VAL200      0.1561
     92  C        -26.3810   40.7290  -12.6440 C.2   200  VAL200      0.2260
     93  O        -25.8100   39.9600  -11.8730 O.2   200  VAL200     -0.2867
     94  CB       -28.8660   40.3620  -12.2510 C.3   200  VAL200      0.0252
     95  CG1      -29.0600   41.7540  -11.6370 C.3   200  VAL200      0.0019
     96  CG2      -30.1500   39.8770  -12.8750 C.3   200  VAL200      0.0019
     97  N        -24.4510   43.7560  -10.3600 N.3   202  ASN202     -0.1225
     98  CA       -24.6640   44.9190   -9.5040 C.3   202  ASN202      0.1785
     99  C        -26.1480   45.1780   -9.1740 C.2   202  ASN202      0.2597
    100  O        -26.6000   46.3400   -9.0880 O.2   202  ASN202     -0.2718
    101  CB       -24.0110   46.1690  -10.1220 C.3   202  ASN202      0.1169
    102  CG       -22.5840   45.9140  -10.5760 C.2   202  ASN202      0.2627
    103  OD1      -21.7190   45.5660   -9.7710 O.2   202  ASN202     -0.2716
    104  ND2      -22.3350   46.0660  -11.8840 N.am  202  ASN202     -0.0877
    105  N        -26.8960   44.0870   -9.0200 N.am  203  CYS203     -0.1970
    106  CA       -28.3050   44.1490   -8.6690 C.3   203  CYS203      0.1712
    107  C        -28.5870   45.2370   -7.6320 C.2   203  CYS203      0.2296
    108  O        -27.8880   45.3350   -6.6330 O.2   203  CYS203     -0.2864
    109  CB       -28.7660   42.7990   -8.1330 C.3   203  CYS203      0.0983
    110  SG       -30.4880   42.8050   -7.6320 S.3   203  CYS203     -0.0798
    111  N        -28.0300   48.3300   -7.4960 N.3   205  MET205     -0.1245
    112  CA       -27.1020   49.4680   -7.4720 C.3   205  MET205      0.1570
    113  C        -27.3550   50.3840   -8.6810 C.2   205  MET205      0.2261
    114  O        -28.0940   50.0150   -9.6010 O.2   205  MET205     -0.2867
    115  CB       -25.6490   48.9720   -7.4580 C.3   205  MET205      0.0387
    116  CG       -25.2360   48.3500   -6.1370 C.3   205  MET205      0.0595
    117  SD       -23.7260   47.3560   -6.1900 S.3   205  MET205     -0.1393
    118  CE       -23.6000   46.9200   -4.4590 C.3   205  MET205      0.0692
    119  N        -17.4090   41.3720  -10.2990 N.3   220  TYR220     -0.1227
    120  CA       -17.5000   40.5300   -9.1010 C.3   220  TYR220      0.1736
    121  C        -18.9500   40.2100   -8.7050 C.2   220  TYR220      0.2595
    122  O        -19.3020   39.0410   -8.4970 O.2   220  TYR220     -0.2718
    123  CB       -16.7220   41.1440   -7.9170 C.3   220  TYR220      0.0548
    124  CG       -16.9400   40.4210   -6.5950 C.ar  220  TYR220     -0.0200
    125  CD1      -16.8430   39.0310   -6.5100 C.ar  220  TYR220     -0.0009
    126  CD2      -17.2450   41.1260   -5.4380 C.ar  220  TYR220     -0.0009
    127  CE1      -17.0440   38.3590   -5.3070 C.ar  220  TYR220      0.0417
    128  CE2      -17.4580   40.4600   -4.2230 C.ar  220  TYR220      0.0417
    129  CZ       -17.3530   39.0780   -4.1700 C.ar  220  TYR220      0.1957
    130  OH       -17.5510   38.4150   -2.9790 O.3   220  TYR220     -0.2866
    131  N        -19.7780   41.2440   -8.6240 N.am  221  LEU221     -0.1966
    132  CA       -21.1620   41.0760   -8.2050 C.3   221  LEU221      0.1728
    133  C        -22.0300   40.7620   -9.3940 C.2   221  LEU221      0.2616
    134  O        -22.7470   41.6180   -9.9010 O.2   221  LEU221     -0.2715
    135  CB       -21.6650   42.3250   -7.4880 C.3   221  LEU221      0.0311
    136  CG       -20.9610   42.6960   -6.1850 C.3   221  LEU221      0.0022
    137  CD1      -21.6570   43.8730   -5.5460 C.3   221  LEU221      0.0001
    138  CD2      -20.8870   41.5160   -5.2220 C.3   221  LEU221      0.0001
    139  N        -21.9370   39.5240   -9.8440 N.am  222  ALA222     -0.1963
    140  CA       -22.7510   39.0460  -10.9370 C.3   222  ALA222      0.1728
    141  C        -23.3040   37.6790  -10.5930 C.2   222  ALA222      0.2616
    142  O        -22.5930   36.8390  -10.0300 O.2   222  ALA222     -0.2715
    143  CB       -21.9500   39.0000  -12.2360 C.3   222  ALA222      0.0334
    144  N        -24.5710   37.4720  -10.9440 N.am  223  THR223     -0.1951
    145  CA       -25.2770   36.2190  -10.6920 C.3   223  THR223      0.1897
    146  C        -26.0540   35.7930  -11.9340 C.2   223  THR223      0.2313
    147  O        -26.6740   36.6320  -12.5920 O.2   223  THR223     -0.2863
    148  CB       -26.2580   36.3840   -9.4980 C.3   223  THR223      0.1794
    149  OG1      -25.5290   36.7970   -8.3390 O.3   223  THR223     -0.2208
    150  CG2      -27.0100   35.0770   -9.1830 C.3   223  THR223      0.0378
@<TRIPOS>BOND
     1    90    91    1
     2    91    92    1
     3    91    94    1
     4    96    94    1
     5    92    93    2
     6   147   146    2
     7    94    95    1
     8   143   140    1
     9   146   145    1
    10   104   102   am
    11    84    83    2
    12   144   145    1
    13   144   141   am
    14   140   141    1
    15   140   139    1
    16   145   148    1
    17    70    69    2
    18   141   142    2
    19   102   101    1
    20   102   103    2
    21    83    82    1
    22    97    98    1
    23   119   120    1
    24   101    98    1
    25   134   133    2
    26   139   133   am
    27   114   113    2
    28    76    75    2
    29    69    68    1
    30    98    99    1
    31   148   150    1
    32   148   149    1
    33   133   132    1
    34    99   100    2
    35    99   105   am
    36   120   121    1
    37   120   123    1
    38    71    68    1
    39    71    72    1
    40   105   106    1
    41    82    85    1
    42    82    81    1
    43    68    67    1
    44   121   131   am
    45   121   122    2
    46   113   112    1
    47   106   109    1
    48   106   107    1
    49    75    81   am
    50    75    74    1
    51   131   132    1
    52    73    74    1
    53    85    86    1
    54   132   135    1
    55   109   110    1
    56    74    77    1
    57   123   124    1
    58   107   108    2
    59   111   112    1
    60   135   136    1
    61   112   115    1
    62   115   116    1
    63    86    87    1
    64   124   125   ar
    65   124   126   ar
    66   125   127   ar
    67    77    78    1
    68   117   116    1
    69   117   118    1
    70   136   137    1
    71   136   138    1
    72    87    88    1
    73    78    79    1
    74    64    63    2
    75   126   128   ar
    76   127   129   ar
    77    79    80    1
    78    88    89    1
    79    63    62    1
    80   128   129   ar
    81   129   130    1
    82    66    65    1
    83    65    62    1
    84    62    61    1
    85     4     3    2
    86     5     6    1
    87     5     2    1
    88     6     7    1
    89     3     2    1
    90    57    56    2
    91    47    46    1
    92    61    56   am
    93     2     1    1
    94    45    46   ar
    95    45    43   ar
    96    46    44   ar
    97    56    55    1
    98    15    13    1
    99     7     1    1
   100    43    41   ar
   101    44    42   ar
   102    60    58    1
   103    14    13    1
   104    41    42   ar
   105    41    40    1
   106    13    12    1
   107    59    58    1
   108    55    58    1
   109    55    54    1
   110    40    37    1
   111    34    32    1
   112    12     9    1
   113    39    38    2
   114    17    16    1
   115    17    18    1
   116    37    36    1
   117    37    38    1
   118    16    10   am
   119    31    30    2
   120    32    33    1
   121    32    29    1
   122    10     9    1
   123    10    11    2
   124    35    33    1
   125    36    30   am
   126     9     8    1
   127    30    29    1
   128    38    48   am
   129    29    28    1
   130    18    20   am
   131    18    19    2
   132    20    21    1
   133    48    49    1
   134    24    21    1
   135    24    25    1
   136    49    50    1
   137    49    52    1
   138    23    22    2
   139    21    22    1
   140    50    51    2
   141    52    53    1
   142    25    26   ar
   143    25    27   ar
