@<TRIPOS>MOLECULE
tmp/2qbyD00.pdb
 172 166 0 0 0
SMALL
GASTEIGER

@<TRIPOS>ATOM
      1  N          3.5850   -3.8120   36.6940 N.3     9  PRO9       -0.2116
      2  CA         3.8410   -3.3870   38.0700 C.3     9  PRO9        0.1372
      3  C          2.7360   -3.8060   39.0560 C.2     9  PRO9        0.2244
      4  O          3.0430   -4.1600   40.1970 O.2     9  PRO9       -0.2868
      5  CB         3.9160   -1.8610   37.9420 C.3     9  PRO9        0.0268
      6  CG         4.3500   -1.6360   36.5370 C.3     9  PRO9        0.0207
      7  CD         3.6640   -2.6850   35.7490 C.3     9  PRO9        0.0892
      8  N          4.4040   -4.8360   42.5830 N.3    13  PHE13      -0.1241
      9  CA         4.1330   -3.8600   43.6340 C.3    13  PHE13       0.1605
     10  C          2.8950   -4.2190   44.4450 C.2    13  PHE13       0.2264
     11  O          1.8130   -4.3740   43.8790 O.2    13  PHE13      -0.2867
     12  CB         3.9230   -2.4810   43.0140 C.3    13  PHE13       0.0534
     13  CG         5.1920   -1.7640   42.6910 C.ar   13  PHE13      -0.0203
     14  CD1        6.1970   -2.3980   41.9830 C.ar   13  PHE13      -0.0042
     15  CD2        5.3780   -0.4520   43.0840 C.ar   13  PHE13      -0.0042
     16  CE1        7.3730   -1.7410   41.6840 C.ar   13  PHE13      -0.0003
     17  CE2        6.5530    0.2120   42.7880 C.ar   13  PHE13      -0.0003
     18  CZ         7.5520   -0.4320   42.0870 C.ar   13  PHE13      -0.0000
     19  N          1.9220    1.4470   46.5110 N.3    16  ILE16      -0.1231
     20  CA         2.2790    2.5500   45.6300 C.3    16  ILE16       0.1678
     21  C          2.8920    3.7160   46.3990 C.2    16  ILE16       0.2434
     22  O          2.1740    4.5240   46.9850 O.2    16  ILE16      -0.2733
     23  CB         1.0500    3.0660   44.8830 C.3    16  ILE16       0.0265
     24  CG1        0.3520    1.9200   44.1440 C.3    16  ILE16       0.0019
     25  CG2        1.4430    4.1730   43.9290 C.3    16  ILE16       0.0020
     26  CD1       -0.7990    2.3740   43.2700 C.3    16  ILE16       0.0001
     27  N          4.2280    3.8120   46.3880 N.am   17  PRO17      -0.2729
     28  CA         4.9780    4.8290   47.1280 C.3    17  PRO17       0.1401
     29  C          4.5480    6.2610   46.8400 C.2    17  PRO17       0.2269
     30  O          4.5900    6.7010   45.6990 O.2    17  PRO17      -0.2865
     31  CB         6.4120    4.6010   46.6500 C.3    17  PRO17       0.0296
     32  CG         6.4590    3.1430   46.4000 C.3    17  PRO17       0.0237
     33  CD         5.1290    2.8290   45.7650 C.3    17  PRO17       0.0939
     34  N          1.5420    7.5670   47.4300 N.3    19  ARG19      -0.1245
     35  CA         0.1360    7.6780   47.0650 C.3    19  ARG19       0.1563
     36  C         -0.7310    7.0090   48.1150 C.2    19  ARG19       0.2260
     37  O         -1.8580    6.6140   47.8270 O.2    19  ARG19      -0.2867
     38  CB        -0.1220    6.9940   45.7220 C.3    19  ARG19       0.0307
     39  CG         0.6690    7.5570   44.5730 C.3    19  ARG19       0.0489
     40  CD         0.4210    9.0300   44.4320 C.3    19  ARG19       0.2205
     41  NE         1.2130    9.5980   43.3540 N.pl3  19  ARG19      -0.0865
     42  CZ         1.3710   10.9010   43.1640 C.cat  19  ARG19       0.5346
     43  NH1        0.8010   11.7650   43.9880 N.pl3  19  ARG19       0.1354
     44  NH2        2.1040   11.3450   42.1590 N.pl3  19  ARG19       0.1354
     45  N         -1.0130   15.5230   35.9350 N.3    47  LEU47      -0.1231
     46  CA        -0.2300   15.4170   34.7150 C.3    47  LEU47       0.1693
     47  C          0.0190   13.9430   34.4040 C.2    47  LEU47       0.2593
     48  O         -0.3410   13.0560   35.1840 O.2    47  LEU47      -0.2718
     49  CB         1.0900   16.1770   34.8410 C.3    47  LEU47       0.0284
     50  CG         0.9670   17.5600   35.4710 C.3    47  LEU47       0.0019
     51  CD1        2.3270   18.2130   35.6280 C.3    47  LEU47       0.0001
     52  CD2        0.0750   18.4320   34.6420 C.3    47  LEU47       0.0001
     53  N          0.6250   13.6800   33.2540 N.am   48  THR48      -0.1939
     54  CA         0.7740   12.3060   32.8050 C.3    48  THR48       0.2028
     55  C          1.9280   11.6200   33.5110 C.2    48  THR48       0.2643
     56  O          2.9870   12.2110   33.7260 O.2    48  THR48      -0.2714
     57  CB         0.9090   12.2120   31.2800 C.3    48  THR48       0.1808
     58  OG1        1.5660   13.3860   30.7990 O.3    48  THR48      -0.2208
     59  CG2       -0.4690   12.1360   30.6320 C.3    48  THR48       0.0379
     60  N          1.6890   10.3710   33.8920 N.am   49  GLY49      -0.1939
     61  CA         2.6790    9.5670   34.5710 C.3    49  GLY49       0.2014
     62  C          2.7960    9.9300   36.0350 C.2    49  GLY49       0.2640
     63  O          3.8690    9.8120   36.6210 O.2    49  GLY49      -0.2714
     64  N          1.7030   10.3820   36.6370 N.am   50  THR50      -0.1936
     65  CA         1.7330   10.6850   38.0600 C.3    50  THR50       0.2028
     66  C          1.0120    9.6110   38.8700 C.2    50  THR50       0.2643
     67  O          0.7530    9.7920   40.0560 O.2    50  THR50      -0.2714
     68  CB         1.1740   12.0910   38.3830 C.3    50  THR50       0.1808
     69  OG1        0.0150   12.3510   37.5900 O.3    50  THR50      -0.2208
     70  CG2        2.2060   13.1530   38.0980 C.3    50  THR50       0.0379
     71  N          0.7010    8.4910   38.2260 N.am   51  GLY51      -0.1939
     72  CA         0.0710    7.3690   38.9010 C.3    51  GLY51       0.2014
     73  C         -1.4490    7.3690   38.9120 C.2    51  GLY51       0.2639
     74  O         -2.0730    6.4890   39.5100 O.2    51  GLY51      -0.2714
     75  N         -2.0570    8.3550   38.2610 N.am   52  LYS52      -0.1963
     76  CA        -3.5090    8.3830   38.1620 C.3    52  LYS52       0.1728
     77  C         -4.0270    6.9890   37.8340 C.2    52  LYS52       0.2617
     78  O         -4.6700    6.3530   38.6610 O.2    52  LYS52      -0.2715
     79  CB        -3.9730    9.3780   37.0970 C.3    52  LYS52       0.0311
     80  CG        -4.3720   10.7250   37.6400 C.3    52  LYS52       0.0038
     81  CD        -3.4340   11.8210   37.2120 C.3    52  LYS52       0.0206
     82  CE        -3.8210   12.3330   35.8420 C.3    52  LYS52       0.1093
     83  NZ        -2.8680   11.9100   34.7770 N.3    52  LYS52      -0.1314
     84  N         -3.7190    6.5120   36.6300 N.am   53  THR53      -0.1937
     85  CA        -4.2030    5.2100   36.1670 C.3    53  THR53       0.2028
     86  C         -3.8090    4.0830   37.1240 C.2    53  THR53       0.2642
     87  O         -4.6540    3.3090   37.5760 O.2    53  THR53      -0.2714
     88  CB        -3.7050    4.8780   34.7350 C.3    53  THR53       0.1808
     89  OG1       -4.3350    5.7490   33.7920 O.3    53  THR53      -0.2208
     90  CG2       -4.0460    3.4540   34.3770 C.3    53  THR53       0.0379
     91  N         -2.5210    4.0120   37.4320 N.am   54  PHE54      -0.1973
     92  CA        -1.9670    2.9740   38.2890 C.3    54  PHE54       0.1639
     93  C         -2.7450    2.8030   39.6010 C.2    54  PHE54       0.2290
     94  O         -3.1400    1.6890   39.9550 O.2    54  PHE54      -0.2864
     95  CB        -0.4900    3.2850   38.5550 C.3    54  PHE54       0.0560
     96  CG         0.2780    2.1530   39.1860 C.ar   54  PHE54      -0.0200
     97  CD1       -0.1640    0.8440   39.0800 C.ar   54  PHE54      -0.0042
     98  CD2        1.4640    2.4000   39.8680 C.ar   54  PHE54      -0.0042
     99  CE1        0.5540   -0.1970   39.6590 C.ar   54  PHE54      -0.0003
    100  CE2        2.1850    1.3660   40.4450 C.ar   54  PHE54      -0.0003
    101  CZ         1.7320    0.0690   40.3410 C.ar   54  PHE54      -0.0000
    102  N        -11.2780    6.0470   33.2030 N.3   134  ASP134     -0.1239
    103  CA        -9.9680    6.5950   32.8470 C.3   134  ASP134      0.1674
    104  C        -10.0280    7.4740   31.5920 C.2   134  ASP134      0.2266
    105  O        -10.5320    7.0620   30.5460 O.2   134  ASP134     -0.2867
    106  CB        -8.9000    5.4910   32.7070 C.3   134  ASP134      0.1410
    107  CG        -7.4710    6.0100   32.9660 C.2   134  ASP134      0.3668
    108  OD1       -7.3280    7.0760   33.6180 O.co2 134  ASP134     -0.2456
    109  OD2       -6.4920    5.3540   32.5280 O.co2 134  ASP134     -0.2456
    110  N         -7.0920   13.0540   32.1670 N.3   166  ASN166     -0.1240
    111  CA        -5.7200   13.4170   31.8640 C.3   166  ASN166      0.1653
    112  C         -5.5520   14.9230   31.6320 C.2   166  ASN166      0.2266
    113  O         -4.4950   15.4840   31.9300 O.2   166  ASN166     -0.2867
    114  CB        -5.1760   12.5910   30.7000 C.3   166  ASN166      0.1155
    115  CG        -4.5630   11.2750   31.1560 C.2   166  ASN166      0.2627
    116  OD1       -3.3370   11.1210   31.2030 O.2   166  ASN166     -0.2716
    117  ND2       -5.4170   10.3180   31.4870 N.am  166  ASN166     -0.0877
    118  N          5.9790   13.7730   40.9990 N.3   191  TYR191     -0.1241
    119  CA         7.0200   13.3580   41.9160 C.3   191  TYR191      0.1605
    120  C          8.2180   14.3070   41.8870 C.2   191  TYR191      0.2264
    121  O          8.4930   14.9500   40.8780 O.2   191  TYR191     -0.2867
    122  CB         7.4630   11.9410   41.5670 C.3   191  TYR191      0.0534
    123  CG         6.3390   10.9240   41.5530 C.ar  191  TYR191     -0.0201
    124  CD1        6.2280    9.9820   42.5650 C.ar  191  TYR191     -0.0009
    125  CD2        5.3990   10.8980   40.5290 C.ar  191  TYR191     -0.0009
    126  CE1        5.2160    9.0460   42.5660 C.ar  191  TYR191      0.0417
    127  CE2        4.3810    9.9570   40.5210 C.ar  191  TYR191      0.0417
    128  CZ         4.2960    9.0350   41.5460 C.ar  191  TYR191      0.1957
    129  OH         3.2910    8.0970   41.5690 O.3   191  TYR191     -0.2866
    130  N         11.3650    5.3070   44.1060 N.3   199  ILE199     -0.1245
    131  CA        10.5580    4.4850   43.2100 C.3   199  ILE199      0.1561
    132  C         11.4510    3.6390   42.3220 C.2   199  ILE199      0.2260
    133  O         11.3330    2.4170   42.2830 O.2   199  ILE199     -0.2867
    134  CB         9.6470    5.3280   42.2970 C.3   199  ILE199      0.0252
    135  CG1        8.6850    6.1790   43.1220 C.3   199  ILE199      0.0019
    136  CG2        8.8620    4.4230   41.3500 C.3   199  ILE199      0.0019
    137  CD1        7.5270    6.7020   42.3200 C.3   199  ILE199      0.0001
    138  N         11.9130   -0.5420   41.6570 N.3   203  TYR203     -0.1241
    139  CA        11.9420   -1.2270   40.3700 C.3   203  TYR203      0.1605
    140  C         13.3040   -1.9060   40.1600 C.2   203  TYR203      0.2264
    141  O         13.3760   -3.0800   39.7790 O.2   203  TYR203     -0.2867
    142  CB        11.6610   -0.2330   39.2360 C.3   203  TYR203      0.0534
    143  CG        10.1950   -0.0290   38.8610 C.ar  203  TYR203     -0.0201
    144  CD1        9.5360   -0.9360   38.0350 C.ar  203  TYR203     -0.0009
    145  CD2        9.4850    1.0930   39.2900 C.ar  203  TYR203     -0.0009
    146  CE1        8.2090   -0.7470   37.6680 C.ar  203  TYR203      0.0417
    147  CE2        8.1550    1.2860   38.9280 C.ar  203  TYR203      0.0417
    148  CZ         7.5260    0.3630   38.1150 C.ar  203  TYR203      0.1957
    149  OH         6.2100    0.5440   37.7480 O.3   203  TYR203     -0.2866
    150  N          6.3920    9.6020   35.7400 N.3   232  ALA232     -0.1231
    151  CA         7.0520    8.4070   36.2560 C.3   232  ALA232      0.1694
    152  C          7.1620    7.2940   35.2040 C.2   232  ALA232      0.2591
    153  O          8.0120    6.4080   35.3110 O.2   232  ALA232     -0.2718
    154  CB         6.3050    7.8980   37.4800 C.3   232  ALA232      0.0304
    155  N          6.2940    7.3380   34.1960 N.am  233  ARG233     -0.1980
    156  CA         6.2490    6.2970   33.1680 C.3   233  ARG233      0.1597
    157  C          7.5130    6.3680   32.3360 C.2   233  ARG233      0.2287
    158  O          8.0870    5.3480   31.9450 O.2   233  ARG233     -0.2864
    159  CB         5.0310    6.4890   32.2640 C.3   233  ARG233      0.0334
    160  CG         4.4360    5.2010   31.7110 C.3   233  ARG233      0.0492
    161  CD         3.3920    5.4680   30.6400 C.3   233  ARG233      0.2205
    162  NE         2.4720    6.5510   30.9900 N.pl3 233  ARG233     -0.0865
    163  CZ         2.7270    7.8490   30.8190 C.cat 233  ARG233      0.5346
    164  NH1        1.8200    8.7550   31.1600 N.pl3 233  ARG233      0.1354
    165  NH2        3.8910    8.2480   30.3190 N.pl3 233  ARG233      0.1354
    166  N         10.5270    5.2910   34.7360 N.3   236  VAL236     -0.1245
    167  CA        10.6380    3.8310   34.7170 C.3   236  VAL236      0.1561
    168  C         11.1040    3.2760   33.3700 C.2   236  VAL236      0.2260
    169  O         12.0430    2.4840   33.3090 O.2   236  VAL236     -0.2867
    170  CB         9.3100    3.1500   35.0500 C.3   236  VAL236      0.0252
    171  CG1        9.4070    1.6530   34.7620 C.3   236  VAL236      0.0019
    172  CG2        8.9460    3.3930   36.4840 C.3   236  VAL236      0.0019
@<TRIPOS>BOND
     1   165   163    1
     2   105   104    2
     3    59    57    1
     4   161   162    1
     5   161   160    1
     6   114   115    1
     7   114   111    1
     8    58    57    1
     9   163   162    2
    10   163   164    1
    11   115   116    2
    12   115   117   am
    13    57    54    1
    14   104   103    1
    15   112   111    1
    16   112   113    2
    17   160   159    1
    18   111   110    1
    19   158   157    2
    20   159   156    1
    21   157   156    1
    22   109   107   ar
    23   106   103    1
    24   106   107    1
    25    54    53    1
    26    54    55    1
    27   103   102    1
    28   107   108   ar
    29   156   155    1
    30    53    47   am
    31   169   168    2
    32   168   167    1
    33    55    56    2
    34    55    60   am
    35    89    88    1
    36    60    61    1
    37   155   152   am
    38    90    88    1
    39    47    46    1
    40    47    48    2
    41    61    62    1
    42    52    50    1
    43    46    49    1
    44    46    45    1
    45   167   166    1
    46   167   170    1
    47    88    85    1
    48   171   170    1
    49    83    82    1
    50    49    50    1
    51   170   172    1
    52   152   153    2
    53   152   151    1
    54    50    51    1
    55   150   151    1
    56     7     6    1
    57     7     1    1
    58    82    81    1
    59    62    63    2
    60    62    64   am
    61    85    84    1
    62    85    86    1
    63   151   154    1
    64     6     5    1
    65    84    77   am
    66    64    65    1
    67     1     2    1
    68    79    80    1
    69    79    76    1
    70    86    91   am
    71    86    87    2
    72    81    80    1
    73    91    92    1
    74    69    68    1
    75   146   144   ar
    76   146   148   ar
    77   149   148    1
    78    77    76    1
    79    77    78    2
    80     5     2    1
    81   144   143   ar
    82    65    68    1
    83    65    66    1
    84     2     3    1
    85    70    68    1
    86   148   147   ar
    87    76    75    1
    88    71    66   am
    89    71    72    1
    90    75    73   am
    91    92    95    1
    92    92    93    1
    93    95    96    1
    94   143   142    1
    95   143   145   ar
    96    66    67    2
    97    72    73    1
    98    73    74    2
    99   147   145   ar
   100     3     4    2
   101    97    96   ar
   102    97    99   ar
   103    96    98   ar
   104   142   139    1
   105    93    94    2
   106    99   101   ar
   107   141   140    2
   108    98   100   ar
   109   140   139    1
   110   101   100   ar
   111   139   138    1
   112   127   125   ar
   113   127   128   ar
   114   125   123   ar
   115   121   120    2
   116   118   119    1
   117   136   134    1
   118   128   129    1
   119   128   126   ar
   120   123   122    1
   121   123   124   ar
   122   122   119    1
   123    16    14   ar
   124    16    18   ar
   125   120   119    1
   126    14    13   ar
   127    18    17   ar
   128    44    42    1
   129   133   132    2
   130   134   135    1
   131   134   131    1
   132   137   135    1
   133   132   131    1
   134   124   126   ar
   135     8     9    1
   136    13    12    1
   137    13    15   ar
   138    17    15   ar
   139    12     9    1
   140    42    41    2
   141    42    43    1
   142   131   130    1
   143    26    24    1
   144    41    40    1
   145     9    10    1
   146    11    10    2
   147    25    23    1
   148    24    23    1
   149    40    39    1
   150    39    38    1
   151    23    20    1
   152    20    21    1
   153    20    19    1
   154    30    29    2
   155    38    35    1
   156    33    27    1
   157    33    32    1
   158    27    21   am
   159    27    28    1
   160    21    22    2
   161    32    31    1
   162    31    28    1
   163    29    28    1
   164    35    34    1
   165    35    36    1
   166    37    36    2
