@<TRIPOS>MOLECULE
tmp/2qbyC00.pdb
 175 170 0 0 0
SMALL
GASTEIGER

@<TRIPOS>ATOM
      1  N        -19.8500   33.4530   48.4620 N.3     9  LEU9       -0.1231
      2  CA       -19.7510   33.0110   47.0810 C.3     9  LEU9        0.1678
      3  C        -20.9210   33.5850   46.2990 C.2     9  LEU9        0.2434
      4  O        -22.0250   33.6990   46.8230 O.2     9  LEU9       -0.2733
      5  CB       -19.7670   31.4860   47.0160 C.3     9  LEU9        0.0284
      6  CG       -18.9220   30.7770   48.0840 C.3     9  LEU9        0.0019
      7  CD1      -19.1660   29.2650   48.0730 C.3     9  LEU9        0.0001
      8  CD2      -17.4300   31.0970   47.9440 C.3     9  LEU9        0.0001
      9  N        -20.6860   33.9600   45.0380 N.am   10  PRO10      -0.2718
     10  CA       -21.7330   34.6190   44.2550 C.3    10  PRO10       0.1535
     11  C        -22.8350   33.6340   43.8910 C.2    10  PRO10       0.2599
     12  O        -23.5450   33.8240   42.9000 O.2    10  PRO10      -0.2715
     13  CB       -20.9970   35.0870   42.9940 C.3    10  PRO10       0.0310
     14  CG       -19.5410   34.9260   43.2900 C.3    10  PRO10       0.0237
     15  CD       -19.4520   33.7960   44.2630 C.3    10  PRO10       0.0939
     16  N        -22.9610   32.5870   44.7020 N.am   11  ASP11      -0.1958
     17  CA       -24.0490   31.6300   44.5780 C.3    11  ASP11       0.1840
     18  C        -25.0860   31.9040   45.6410 C.2    11  ASP11       0.2622
     19  O        -26.2140   32.2810   45.3290 O.2    11  ASP11      -0.2715
     20  CB       -23.5380   30.2060   44.7500 C.3    11  ASP11       0.1450
     21  CG       -22.5780   29.8060   43.6660 C.2    11  ASP11       0.3671
     22  OD1      -22.7530   30.2720   42.5170 O.co2  11  ASP11      -0.2456
     23  OD2      -21.6540   29.0210   43.9680 O.co2  11  ASP11      -0.2456
     24  N        -24.6900   31.7140   46.8970 N.am   12  TYR12      -0.1974
     25  CA       -25.6120   31.8160   48.0210 C.3    12  TYR12       0.1639
     26  C        -26.6350   32.9190   47.8180 C.2    12  TYR12       0.2290
     27  O        -26.3330   33.9820   47.2600 O.2    12  TYR12      -0.2864
     28  CB       -24.8690   32.0310   49.3330 C.3    12  TYR12       0.0560
     29  CG       -25.7730   32.2540   50.5310 C.ar   12  TYR12      -0.0198
     30  CD1      -26.1540   31.1970   51.3510 C.ar   12  TYR12      -0.0009
     31  CD2      -26.2310   33.5260   50.8560 C.ar   12  TYR12      -0.0009
     32  CE1      -26.9760   31.4020   52.4660 C.ar   12  TYR12       0.0417
     33  CE2      -27.0570   33.7390   51.9630 C.ar   12  TYR12       0.0417
     34  CZ       -27.4230   32.6730   52.7650 C.ar   12  TYR12       0.1957
     35  OH       -28.2310   32.8850   53.8600 O.3    12  TYR12      -0.2866
     36  N        -29.6200   35.0440   49.9280 N.3    14  PRO14      -0.2116
     37  CA       -29.9870   35.5620   51.2630 C.3    14  PRO14       0.1372
     38  C        -31.4960   35.6360   51.6140 C.2    14  PRO14       0.2244
     39  O        -32.3800   35.4830   50.7670 O.2    14  PRO14      -0.2868
     40  CB       -29.3900   36.9800   51.2630 C.3    14  PRO14       0.0268
     41  CG       -28.4940   37.0520   50.0440 C.3    14  PRO14       0.0207
     42  CD       -29.0760   36.1030   49.0630 C.3    14  PRO14       0.0892
     43  N        -33.0450   38.3350   52.7270 N.3    16  GLU16      -0.1231
     44  CA       -33.5400   39.5960   52.2230 C.3    16  GLU16       0.1699
     45  C        -32.4950   40.2190   51.3390 C.2    16  GLU16       0.2592
     46  O        -31.3010   40.0250   51.5350 O.2    16  GLU16      -0.2718
     47  CB       -33.8670   40.5500   53.3620 C.3    16  GLU16       0.0402
     48  CG       -35.1190   40.2030   54.1360 C.3    16  GLU16       0.1161
     49  CD       -35.2280   41.0210   55.4130 C.2    16  GLU16       0.3649
     50  OE1      -34.2270   41.7030   55.7370 O.co2  16  GLU16      -0.2457
     51  OE2      -36.2980   40.9830   56.0760 O.co2  16  GLU16      -0.2457
     52  N        -32.9810   40.9690   50.3610 N.am   17  LEU17      -0.1966
     53  CA       -32.1530   41.7060   49.4340 C.3    17  LEU17       0.1713
     54  C        -32.4110   43.1870   49.6320 C.2    17  LEU17       0.2458
     55  O        -33.2200   43.7920   48.9330 O.2    17  LEU17      -0.2730
     56  CB       -32.4780   41.2980   48.0090 C.3    17  LEU17       0.0310
     57  CG       -32.2970   39.8090   47.7870 C.3    17  LEU17       0.0022
     58  CD1      -32.6460   39.4760   46.3720 C.3    17  LEU17       0.0001
     59  CD2      -30.8790   39.4390   48.0790 C.3    17  LEU17       0.0001
     60  N        -31.7250   43.7610   50.6210 N.am   18  PRO18      -0.2727
     61  CA       -31.6460   45.1610   51.0330 C.3    18  PRO18       0.1402
     62  C        -31.5560   46.1170   49.8540 C.2    18  PRO18       0.2269
     63  O        -30.6790   45.9700   49.0050 O.2    18  PRO18      -0.2865
     64  CB       -30.3280   45.2040   51.8020 C.3    18  PRO18       0.0296
     65  CG       -30.2120   43.8560   52.3840 C.3    18  PRO18       0.0237
     66  CD       -30.8880   42.8970   51.4660 C.3    18  PRO18       0.0939
     67  N        -33.2800   46.4970   47.3140 N.3    20  ARG20      -0.1245
     68  CA       -33.9830   46.0650   46.1120 C.3    20  ARG20       0.1563
     69  C        -35.4690   45.8670   46.4210 C.2    20  ARG20       0.2260
     70  O        -36.1080   44.9360   45.9340 O.2    20  ARG20      -0.2867
     71  CB       -33.3320   44.8130   45.5210 C.3    20  ARG20       0.0307
     72  CG       -31.9780   45.1060   44.8780 C.3    20  ARG20       0.0489
     73  CD       -32.1490   46.0290   43.6780 C.3    20  ARG20       0.2205
     74  NE       -30.9430   46.7630   43.3040 N.pl3  20  ARG20      -0.0865
     75  CZ       -30.7260   48.0450   43.5840 C.cat  20  ARG20       0.5346
     76  NH1      -31.6160   48.7530   44.2560 N.pl3  20  ARG20       0.1354
     77  NH2      -29.6070   48.6260   43.1970 N.pl3  20  ARG20       0.1354
     78  N        -23.4090   45.5590   36.0430 N.3    49  THR49      -0.1203
     79  CA       -23.1660   44.2370   36.5960 C.3    49  THR49       0.1994
     80  C        -22.9380   44.3050   38.0940 C.2    49  THR49       0.2618
     81  O        -22.1370   45.1070   38.5860 O.2    49  THR49      -0.2717
     82  CB       -22.0200   43.4880   35.9290 C.3    49  THR49       0.1784
     83  OG1      -22.2000   42.0840   36.1570 O.3    49  THR49      -0.2211
     84  CG2      -20.6910   43.9240   36.5080 C.3    49  THR49       0.0376
     85  N        -23.6680   43.4490   38.8020 N.am   50  GLY50      -0.1942
     86  CA       -23.6330   43.3930   40.2460 C.3    50  GLY50       0.2014
     87  C        -24.6710   44.3210   40.8260 C.2    50  GLY50       0.2640
     88  O        -24.5160   44.8020   41.9380 O.2    50  GLY50      -0.2714
     89  N        -25.7310   44.5900   40.0780 N.am   51  THR51      -0.1936
     90  CA       -26.7490   45.4940   40.5830 C.3    51  THR51       0.2028
     91  C        -27.9100   44.7250   41.1760 C.2    51  THR51       0.2643
     92  O        -28.8730   45.3200   41.6440 O.2    51  THR51      -0.2714
     93  CB       -27.2540   46.4570   39.5170 C.3    51  THR51       0.1808
     94  OG1      -27.1950   45.8180   38.2430 O.3    51  THR51      -0.2208
     95  CG2      -26.4110   47.7090   39.4730 C.3    51  THR51       0.0379
     96  N        -27.8200   43.4020   41.1580 N.am   52  GLY52      -0.1939
     97  CA       -28.8330   42.5810   41.7940 C.3    52  GLY52       0.2014
     98  C        -29.6990   41.8010   40.8240 C.2    52  GLY52       0.2639
     99  O        -30.3500   40.8290   41.1980 O.2    52  GLY52      -0.2714
    100  N        -29.6880   42.2310   39.5680 N.am   53  LYS53      -0.1963
    101  CA       -30.5000   41.6300   38.5190 C.3    53  LYS53       0.1728
    102  C        -30.7060   40.1220   38.7260 C.2    53  LYS53       0.2617
    103  O        -31.8210   39.6750   38.9870 O.2    53  LYS53      -0.2715
    104  CB       -29.8900   41.9240   37.1420 C.3    53  LYS53       0.0311
    105  CG       -29.3410   43.3420   36.9800 C.3    53  LYS53       0.0038
    106  CD       -28.7820   43.5730   35.5860 C.3    53  LYS53       0.0206
    107  CE       -27.7570   42.5150   35.1900 C.3    53  LYS53       0.1093
    108  NZ       -26.3690   42.7580   35.6870 N.3    53  LYS53      -0.1314
    109  N        -29.6440   39.3330   38.6300 N.am   54  THR54      -0.1937
    110  CA       -29.8140   37.8860   38.6910 C.3    54  THR54       0.2028
    111  C        -30.3460   37.4740   40.0400 C.2    54  THR54       0.2642
    112  O        -31.1180   36.5270   40.1560 O.2    54  THR54      -0.2714
    113  CB       -28.5000   37.1170   38.4550 C.3    54  THR54       0.1808
    114  OG1      -27.8710   37.5640   37.2430 O.3    54  THR54      -0.2208
    115  CG2      -28.7910   35.6150   38.3740 C.3    54  THR54       0.0379
    116  N        -29.9200   38.2000   41.0620 N.am   55  ALA55      -0.1977
    117  CA       -30.2780   37.8760   42.4350 C.3    55  ALA55       0.1597
    118  C        -31.7700   38.0260   42.6710 C.2    55  ALA55       0.2287
    119  O        -32.4600   37.0430   42.9310 O.2    55  ALA55      -0.2864
    120  CB       -29.5250   38.7600   43.3910 C.3    55  ALA55       0.0319
    121  N        -25.4780   50.3460   43.2860 N.3   190  TYR190     -0.1241
    122  CA       -25.7080   50.5770   44.7100 C.3   190  TYR190      0.1605
    123  C        -24.8850   51.7310   45.2350 C.2   190  TYR190      0.2264
    124  O        -23.8170   52.0440   44.7030 O.2   190  TYR190     -0.2867
    125  CB       -25.3460   49.3470   45.5310 C.3   190  TYR190      0.0534
    126  CG       -26.1970   48.1360   45.2790 C.ar  190  TYR190     -0.0201
    127  CD1      -27.4100   47.9720   45.9180 C.ar  190  TYR190     -0.0009
    128  CD2      -25.7680   47.1340   44.4300 C.ar  190  TYR190     -0.0009
    129  CE1      -28.1800   46.8540   45.7020 C.ar  190  TYR190      0.0417
    130  CE2      -26.5370   46.0170   44.2090 C.ar  190  TYR190      0.0417
    131  CZ       -27.7380   45.8850   44.8480 C.ar  190  TYR190      0.1957
    132  OH       -28.4980   44.7720   44.6310 O.3   190  TYR190     -0.2866
    133  N        -25.2880   45.6900   52.6970 N.3   198  ILE198     -0.1245
    134  CA       -25.2830   44.4070   52.0010 C.3   198  ILE198      0.1561
    135  C        -24.1360   43.5320   52.4570 C.2   198  ILE198      0.2260
    136  O        -24.2620   42.3110   52.5440 O.2   198  ILE198     -0.2867
    137  CB       -25.1550   44.6030   50.4880 C.3   198  ILE198      0.0252
    138  CG1      -26.1450   45.6620   50.0060 C.3   198  ILE198      0.0019
    139  CG2      -25.3940   43.2990   49.7720 C.3   198  ILE198      0.0019
    140  CD1      -26.6680   45.4050   48.6290 C.3   198  ILE198      0.0001
    141  N        -24.1140   39.9710   55.2750 N.3   202  ARG202     -0.1245
    142  CA       -23.5520   38.7180   54.7790 C.3   202  ARG202      0.1563
    143  C        -22.2550   38.3680   55.5080 C.2   202  ARG202      0.2260
    144  O        -21.8000   37.2230   55.4760 O.2   202  ARG202     -0.2867
    145  CB       -23.3740   38.7600   53.2520 C.3   202  ARG202      0.0307
    146  CG       -24.7220   38.7350   52.5190 C.3   202  ARG202      0.0489
    147  CD       -24.7120   39.3750   51.1330 C.3   202  ARG202      0.2205
    148  NE       -24.9400   38.4530   50.0180 N.pl3 202  ARG202     -0.0865
    149  CZ       -24.5360   37.1860   49.9720 C.cat 202  ARG202      0.5346
    150  NH1      -23.8590   36.6550   50.9850 N.pl3 202  ARG202      0.1354
    151  NH2      -24.7970   36.4480   48.8950 N.pl3 202  ARG202      0.1354
    152  N        -21.9080   45.1630   43.2710 N.3   231  ALA231     -0.1231
    153  CA       -22.1230   44.3930   44.4830 C.3   231  ALA231      0.1694
    154  C        -21.2370   43.1700   44.5020 C.2   231  ALA231      0.2591
    155  O        -20.9360   42.6600   45.5700 O.2   231  ALA231     -0.2718
    156  CB       -23.5680   43.9820   44.6100 C.3   231  ALA231      0.0304
    157  N        -20.8330   42.6750   43.3360 N.am  232  ARG232     -0.1980
    158  CA       -20.0170   41.4720   43.3350 C.3   232  ARG232      0.1597
    159  C        -18.5860   41.7820   43.6810 C.2   232  ARG232      0.2287
    160  O        -17.8920   40.9360   44.2270 O.2   232  ARG232     -0.2864
    161  CB       -20.0660   40.7100   42.0240 C.3   232  ARG232      0.0334
    162  CG       -19.3460   39.3790   42.1450 C.3   232  ARG232      0.0492
    163  CD       -19.5560   38.5430   40.9160 C.3   232  ARG232      0.2205
    164  NE       -20.9680   38.5510   40.5330 N.pl3 232  ARG232     -0.0865
    165  CZ       -21.4280   38.1600   39.3450 C.cat 232  ARG232      0.5346
    166  NH1      -20.5810   37.7290   38.4110 N.pl3 232  ARG232      0.1354
    167  NH2      -22.7340   38.1980   39.0860 N.pl3 232  ARG232      0.1354
    168  N        -18.1280   42.0710   47.3930 N.3   235  LEU235     -0.1245
    169  CA       -18.1580   40.7650   48.0420 C.3   235  LEU235      0.1561
    170  C        -16.8580   39.9870   47.9020 C.2   235  LEU235      0.2260
    171  O        -16.3580   39.4360   48.8800 O.2   235  LEU235     -0.2867
    172  CB       -19.3190   39.9280   47.5200 C.3   235  LEU235      0.0270
    173  CG       -20.6680   40.2110   48.1640 C.3   235  LEU235      0.0019
    174  CD1      -21.7050   39.2880   47.5810 C.3   235  LEU235      0.0001
    175  CD2      -20.5550   40.0020   49.6390 C.3   235  LEU235      0.0001
@<TRIPOS>BOND
     1   107   106    1
     2   107   108    1
     3   106   105    1
     4    82    83    1
     5    82    84    1
     6    82    79    1
     7    78    79    1
     8    79    80    1
     9   105   104    1
    10   104   101    1
    11   114   113    1
    12    80    81    2
    13    80    85   am
    14    94    93    1
    15   115   113    1
    16   166   165    1
    17   113   110    1
    18   101   102    1
    19   101   100    1
    20   109   110    1
    21   109   102   am
    22   110   111    1
    23   102   103    2
    24    85    86    1
    25   167   165    1
    26   165   164    2
    27    95    93    1
    28    93    90    1
    29   100    98   am
    30   111   112    2
    31   111   116   am
    32    89    90    1
    33    89    87   am
    34    86    87    1
    35   164   163    1
    36    90    91    1
    37    98    99    2
    38    98    97    1
    39    87    88    2
    40   163   162    1
    41   116   117    1
    42    96    91   am
    43    96    97    1
    44    91    92    2
    45   161   162    1
    46   161   158    1
    47   117   118    1
    48   117   120    1
    49    22    21   ar
    50   118   119    2
    51    12    11    2
    52    13    14    1
    53    13    10    1
    54    77    75    1
    55   152   153    1
    56   121   122    1
    57    14    15    1
    58    74    75    2
    59    74    73    1
    60   158   157    1
    61   158   159    1
    62   157   154   am
    63    75    76    1
    64    21    23   ar
    65    21    20    1
    66    73    72    1
    67   159   160    2
    68    11    10    1
    69    11    16   am
    70   130   128   ar
    71   130   131   ar
    72    10     9    1
    73    15     9    1
    74   128   126   ar
    75   153   154    1
    76   153   156    1
    77   154   155    2
    78    17    16    1
    79    17    20    1
    80    17    18    1
    81   132   131    1
    82   124   123    2
    83   122   123    1
    84   122   125    1
    85   131   129   ar
    86    72    71    1
    87     9     3   am
    88   126   125    1
    89   126   127   ar
    90    19    18    2
    91    71    68    1
    92    18    24   am
    93   129   127   ar
    94    70    69    2
    95    68    69    1
    96    68    67    1
    97     3     4    2
    98     3     2    1
    99    58    57    1
   100    24    25    1
   101     5     2    1
   102     5     6    1
   103     2     1    1
   104    27    26    2
   105   168   169    1
   106   172   169    1
   107   172   173    1
   108   174   173    1
   109    57    56    1
   110    57    59    1
   111    26    25    1
   112   170   169    1
   113   170   171    2
   114     8     6    1
   115    56    53    1
   116    25    28    1
   117     7     6    1
   118   173   175    1
   119   140   138    1
   120   151   149    1
   121    55    54    2
   122    63    62    2
   123    42    36    1
   124    42    41    1
   125    28    29    1
   126    53    54    1
   127    53    52    1
   128    54    60   am
   129   139   137    1
   130    62    61    1
   131    36    37    1
   132   149   148    2
   133   149   150    1
   134   138   137    1
   135   148   147    1
   136    41    40    1
   137    52    45   am
   138   137   134    1
   139    29    31   ar
   140    29    30   ar
   141    60    61    1
   142    60    66    1
   143    39    38    2
   144    31    33   ar
   145    61    64    1
   146   147   146    1
   147    37    40    1
   148    37    38    1
   149    45    46    2
   150    45    44    1
   151    30    32   ar
   152    66    65    1
   153    64    65    1
   154    33    34   ar
   155   134   135    1
   156   134   133    1
   157    44    43    1
   158    44    47    1
   159   135   136    2
   160    32    34   ar
   161   146   145    1
   162    34    35    1
   163   145   142    1
   164    47    48    1
   165    48    49    1
   166   142   141    1
   167   142   143    1
   168    49    50   ar
   169    49    51   ar
   170   144   143    2
