@<TRIPOS>MOLECULE
tmp/2qc6A00.pdb
 116 109 0 0 0
SMALL
GASTEIGER

@<TRIPOS>ATOM
      1  N         26.2020    7.7060   25.8580 N.3    39  VAL39      -0.1231
      2  CA        24.8600    7.1250   25.7540 C.3    39  VAL39       0.1692
      3  C         24.8330    5.7650   25.0460 C.2    39  VAL39       0.2592
      4  O         23.8900    4.9980   25.1950 O.2    39  VAL39      -0.2718
      5  CB        23.8010    8.1190   25.1590 C.3    39  VAL39       0.0266
      6  CG1       23.5930    9.3200   26.0900 C.3    39  VAL39       0.0020
      7  CG2       24.1570    8.5760   23.7630 C.3    39  VAL39       0.0020
      8  N         25.8880    5.4540   24.3160 N.am   40  GLY40      -0.1957
      9  CA        25.9590    4.1940   23.6070 C.3    40  GLY40       0.1869
     10  C         27.3150    3.9500   23.0070 C.2    40  GLY40       0.2309
     11  O         28.1640    4.8440   22.9590 O.2    40  GLY40      -0.2863
     12  N         29.0620    7.0080   21.3910 N.3    47  VAL47      -0.1245
     13  CA        28.0310    8.0140   21.2180 C.3    47  VAL47       0.1561
     14  C         27.7270    8.6960   22.5340 C.2    47  VAL47       0.2260
     15  O         27.5480    8.0450   23.5700 O.2    47  VAL47      -0.2867
     16  CB        26.7580    7.3700   20.5970 C.3    47  VAL47       0.0252
     17  CG1       25.6390    8.3800   20.4500 C.3    47  VAL47       0.0019
     18  CG2       27.1210    6.7600   19.2360 C.3    47  VAL47       0.0019
     19  N         23.8600   15.0080   19.6290 N.3    60  ILE60      -0.1245
     20  CA        24.4320   13.6840   19.7430 C.3    60  ILE60       0.1561
     21  C         25.7520   13.6870   19.0080 C.2    60  ILE60       0.2260
     22  O         25.8410   14.1240   17.8650 O.2    60  ILE60      -0.2867
     23  CB        23.4860   12.5940   19.1860 C.3    60  ILE60       0.0252
     24  CG1       22.4130   12.2400   20.2260 C.3    60  ILE60       0.0019
     25  CG2       24.2550   11.3720   18.7460 C.3    60  ILE60       0.0019
     26  CD1       22.9020   11.3980   21.3990 C.3    60  ILE60       0.0001
     27  N         28.6580   11.3500   17.7510 N.3    62  LYS62      -0.1245
     28  CA        29.0560   10.0050   17.4040 C.3    62  LYS62       0.1561
     29  C         30.5220   10.0220   16.9990 C.2    62  LYS62       0.2260
     30  O         30.8760   10.4840   15.9080 O.2    62  LYS62      -0.2867
     31  CB        28.1600    9.4580   16.2660 C.3    62  LYS62       0.0271
     32  CG        28.4850    8.0380   15.8430 C.3    62  LYS62       0.0035
     33  CD        27.7290    7.6590   14.5510 C.3    62  LYS62       0.0206
     34  CE        27.9880    6.1880   14.1710 C.3    62  LYS62       0.1093
     35  NZ        26.9080    5.5890   13.2960 N.3    62  LYS62      -0.1314
     36  N         28.7760    6.4690    4.9340 N.3    75  GLU75      -0.1245
     37  CA        27.8210    6.8470    5.9410 C.3    75  GLU75       0.1567
     38  C         27.4890    8.3330    5.8860 C.2    75  GLU75       0.2260
     39  O         26.3340    8.7020    6.0760 O.2    75  GLU75      -0.2867
     40  CB        28.3120    6.4080    7.3260 C.3    75  GLU75       0.0388
     41  CG        27.6300    7.1050    8.4890 C.3    75  GLU75       0.1160
     42  CD        27.8720    6.4170    9.8200 C.2    75  GLU75       0.3649
     43  OE1       28.7980    5.5810    9.9060 O.co2  75  GLU75      -0.2457
     44  OE2       27.1200    6.6950   10.7850 O.co2  75  GLU75      -0.2457
     45  N         17.3080    9.9740   11.2520 N.3    88  VAL88      -0.1245
     46  CA        18.1640   10.7880   12.1220 C.3    88  VAL88       0.1561
     47  C         18.8550   11.8990   11.3010 C.2    88  VAL88       0.2260
     48  O         19.3400   11.6420   10.1860 O.2    88  VAL88      -0.2867
     49  CB        19.1840    9.8820   12.8730 C.3    88  VAL88       0.0252
     50  CG1       20.3430    9.4790   11.9680 C.3    88  VAL88       0.0019
     51  CG2       19.6970   10.5620   14.1470 C.3    88  VAL88       0.0019
     52  N         24.6900   14.9590   15.3570 N.3   106  PHE106     -0.1227
     53  CA        23.2940   14.6770   15.0400 C.3   106  PHE106      0.1736
     54  C         22.3460   15.4590   15.9330 C.2   106  PHE106      0.2595
     55  O         22.7160   15.8790   17.0380 O.2   106  PHE106     -0.2718
     56  CB        22.9910   13.1890   15.2480 C.3   106  PHE106      0.0547
     57  CG        23.7130   12.2770   14.3090 C.ar  106  PHE106     -0.0202
     58  CD1       24.8200   11.5500   14.7410 C.ar  106  PHE106     -0.0042
     59  CD2       23.2780   12.1210   12.9940 C.ar  106  PHE106     -0.0042
     60  CE1       25.4830   10.6940   13.8770 C.ar  106  PHE106     -0.0003
     61  CE2       23.9450   11.2580   12.1220 C.ar  106  PHE106     -0.0003
     62  CZ        25.0390   10.5490   12.5660 C.ar  106  PHE106     -0.0000
     63  N         21.1120   15.6220   15.4540 N.am  107  GLU107     -0.1979
     64  CA        19.9940   16.0470   16.2960 C.3   107  GLU107      0.1602
     65  C         19.9930   15.1850   17.5540 C.2   107  GLU107      0.2287
     66  O         20.4110   14.0220   17.5350 O.2   107  GLU107     -0.2864
     67  CB        18.6560   15.8690   15.5550 C.3   107  GLU107      0.0415
     68  CG        18.3430   14.3950   15.1680 C.3   107  GLU107      0.1163
     69  CD        16.9020   14.1530   14.7220 C.2   107  GLU107      0.3649
     70  OE1       15.9600   14.3110   15.5380 O.co2 107  GLU107     -0.2457
     71  OE2       16.7170   13.7610   13.5640 O.co2 107  GLU107     -0.2457
     72  N         18.2290   12.9700   20.2940 N.3   109  VAL109     -0.1245
     73  CA        17.0670   12.1330   20.4770 C.3   109  VAL109      0.1561
     74  C         17.2060   11.5150   21.8440 C.2   109  VAL109      0.2260
     75  O         18.2710   11.0160   22.1960 O.2   109  VAL109     -0.2867
     76  CB        16.9740   11.0170   19.4050 C.3   109  VAL109      0.0252
     77  CG1       15.6230   10.3460   19.4620 C.3   109  VAL109      0.0019
     78  CG2       17.2220   11.5810   18.0070 C.3   109  VAL109      0.0019
     79  N         15.7440    4.5840   17.6510 N.3   156  MET156     -0.1245
     80  CA        15.6550    5.4370   18.8370 C.3   156  MET156      0.1570
     81  C         14.2340    5.9080   18.9860 C.2   156  MET156      0.2261
     82  O         13.6530    6.4580   18.0440 O.2   156  MET156     -0.2867
     83  CB        16.6000    6.6390   18.7490 C.3   156  MET156      0.0387
     84  CG        18.0880    6.2970   18.6640 C.3   156  MET156      0.0595
     85  SD        18.7420    5.5390   20.1560 S.3   156  MET156     -0.1393
     86  CE        18.4910    3.7900   19.8350 C.3   156  MET156      0.0692
     87  N         18.5210    5.1640   13.2660 N.3   167  ILE167     -0.1231
     88  CA        19.8970    5.5960   13.4690 C.3   167  ILE167      0.1692
     89  C         20.9000    4.5840   12.9190 C.2   167  ILE167      0.2592
     90  O         20.5080    3.5170   12.4380 O.2   167  ILE167     -0.2718
     91  CB        20.1880    5.8950   14.9580 C.3   167  ILE167      0.0266
     92  CG1       20.1090    4.6170   15.7980 C.3   167  ILE167      0.0019
     93  CG2       19.2340    6.9720   15.4540 C.3   167  ILE167      0.0020
     94  CD1       20.9900    4.5930   17.0440 C.3   167  ILE167      0.0001
     95  N         22.1810    4.9610   13.0100 N.am  168  ASP168     -0.1960
     96  CA        23.3490    4.1820   12.5960 C.3   168  ASP168      0.1840
     97  C         23.3450    3.6630   11.1450 C.2   168  ASP168      0.2622
     98  O         23.1300    2.4780   10.8630 O.2   168  ASP168     -0.2715
     99  CB        23.7240    3.1040   13.6060 C.3   168  ASP168      0.1450
    100  CG        25.1650    2.6300   13.4400 C.2   168  ASP168      0.3671
    101  OD1       25.8530    3.1030   12.5050 O.co2 168  ASP168     -0.2456
    102  OD2       25.6080    1.7770   14.2310 O.co2 168  ASP168     -0.2456
    103  N         23.6490    4.5920   10.2600 N.am  169  TRP169     -0.1974
    104  CA        23.7300    4.3620    8.8250 C.3   169  TRP169      0.1640
    105  C         25.1030    3.8760    8.3840 C.2   169  TRP169      0.2290
    106  O         25.4370    3.9150    7.2150 O.2   169  TRP169     -0.2864
    107  CB        23.2550    5.6170    8.0960 C.3   169  TRP169      0.0576
    108  CG        21.8060    5.8610    8.4420 C.ar  169  TRP169      0.0006
    109  CD1       21.3270    6.4470    9.5730 C.ar  169  TRP169      0.0946
    110  CD2       20.6630    5.4220    7.7030 C.ar  169  TRP169      0.0152
    111  NE1       19.9580    6.4390    9.5770 N.ar  169  TRP169     -0.2442
    112  CE2       19.5150    5.8160    8.4450 C.ar  169  TRP169      0.0810
    113  CE3       20.4880    4.7400    6.4860 C.ar  169  TRP169      0.0012
    114  CZ2       18.2110    5.5800    7.9980 C.ar  169  TRP169      0.0191
    115  CZ3       19.1790    4.4920    6.0390 C.ar  169  TRP169      0.0001
    116  CH2       18.0610    4.9240    6.7910 C.ar  169  TRP169      0.0015
@<TRIPOS>BOND
     1    36    37    1
     2    38    37    1
     3    38    39    2
     4    37    40    1
     5   115   113   ar
     6   115   116   ar
     7   113   110   ar
     8   116   114   ar
     9   106   105    2
    10    40    41    1
    11   110   108   ar
    12   110   112   ar
    13   114   112   ar
    14   107   108    1
    15   107   104    1
    16   105   104    1
    17   108   109   ar
    18   112   111   ar
    19    41    42    1
    20   104   103    1
    21   109   111   ar
    22    42    43   ar
    23    42    44   ar
    24    48    47    2
    25   103    97   am
    26    98    97    2
    27    97    96    1
    28    45    46    1
    29    47    46    1
    30    50    49    1
    31    46    49    1
    32    61    62   ar
    33    61    59   ar
    34    90    89    2
    35   101   100   ar
    36    62    60   ar
    37    96    95    1
    38    96    99    1
    39    49    51    1
    40    89    95   am
    41    89    88    1
    42    59    57   ar
    43    87    88    1
    44    35    34    1
    45   100    99    1
    46   100   102   ar
    47    88    91    1
    48    71    69   ar
    49    60    58   ar
    50    34    33    1
    51    57    58   ar
    52    57    56    1
    53    33    32    1
    54    69    68    1
    55    69    70   ar
    56    91    93    1
    57    91    92    1
    58    53    56    1
    59    53    52    1
    60    53    54    1
    61    68    67    1
    62    63    54   am
    63    63    64    1
    64    67    64    1
    65    92    94    1
    66    32    31    1
    67    30    29    2
    68    54    55    2
    69    31    28    1
    70    64    65    1
    71    29    28    1
    72    28    27    1
    73    66    65    2
    74    79    80    1
    75    22    21    2
    76    78    76    1
    77    82    81    2
    78    84    83    1
    79    84    85    1
    80    25    23    1
    81    83    80    1
    82    80    81    1
    83    21    20    1
    84    23    20    1
    85    23    24    1
    86    18    16    1
    87    76    77    1
    88    76    73    1
    89    19    20    1
    90    86    85    1
    91    24    26    1
    92    72    73    1
    93    17    16    1
    94    73    74    1
    95    16    13    1
    96    13    12    1
    97    13    14    1
    98    74    75    2
    99    14    15    2
   100    11    10    2
   101    10     9    1
   102     9     8    1
   103     7     5    1
   104     8     3   am
   105     3     4    2
   106     3     2    1
   107     5     2    1
   108     5     6    1
   109     2     1    1
