@<TRIPOS>MOLECULE
tmp/2qc8E01.pdb
 177 164 0 0 0
SMALL
GASTEIGER

@<TRIPOS>ATOM
      1  N        -83.7400    4.8980  -32.2770 N.3   125  GLU125     -0.1245
      2  CA       -82.7310    3.9270  -32.6860 C.3   125  GLU125      0.1567
      3  C        -81.8040    4.6150  -33.6950 C.2   125  GLU125      0.2260
      4  O        -82.1190    4.7380  -34.9050 O.2   125  GLU125     -0.2867
      5  CB       -83.3700    2.6780  -33.3090 C.3   125  GLU125      0.0388
      6  CG       -84.4490    1.9990  -32.4470 C.3   125  GLU125      0.1160
      7  CD       -85.2030    0.9560  -33.2700 C.2   125  GLU125      0.3649
      8  OE1      -84.4730    0.1660  -33.9510 O.co2 125  GLU125     -0.2457
      9  OE2      -86.4610    0.9590  -33.3050 O.co2 125  GLU125     -0.2457
     10  N        -79.1460    4.6060  -35.9780 N.3   127  GLU127     -0.1245
     11  CA       -78.2870    3.7950  -36.8220 C.3   127  GLU127      0.1567
     12  C        -77.2610    4.7850  -37.3430 C.2   127  GLU127      0.2260
     13  O        -77.5110    5.9800  -37.3720 O.2   127  GLU127     -0.2867
     14  CB       -79.0880    3.1130  -37.9620 C.3   127  GLU127      0.0388
     15  CG       -80.1570    2.1220  -37.4660 C.3   127  GLU127      0.1160
     16  CD       -80.8580    1.3490  -38.5700 C.2   127  GLU127      0.3649
     17  OE1      -81.2760    1.9460  -39.5980 O.co2 127  GLU127     -0.2457
     18  OE2      -81.0040    0.1300  -38.3910 O.co2 127  GLU127     -0.2457
     19  N        -75.4390   -8.2900  -39.6280 N.3   153  TYR153     -0.1241
     20  CA       -76.4440   -7.9560  -38.6180 C.3   153  TYR153      0.1605
     21  C        -76.2090   -8.7610  -37.3400 C.2   153  TYR153      0.2264
     22  O        -76.1400   -9.9730  -37.3840 O.2   153  TYR153     -0.2867
     23  CB       -77.8610   -8.2180  -39.1780 C.3   153  TYR153      0.0534
     24  CG       -78.9980   -8.0850  -38.1640 C.ar  153  TYR153     -0.0201
     25  CD1      -79.5320   -6.8280  -37.8390 C.ar  153  TYR153     -0.0009
     26  CD2      -79.5350   -9.2080  -37.5300 C.ar  153  TYR153     -0.0009
     27  CE1      -80.5580   -6.6970  -36.9290 C.ar  153  TYR153      0.0417
     28  CE2      -80.5710   -9.0870  -36.6080 C.ar  153  TYR153      0.0417
     29  CZ       -81.0750   -7.8410  -36.3130 C.ar  153  TYR153      0.1957
     30  OH       -82.0790   -7.7160  -35.4100 O.3   153  TYR153     -0.2866
     31  N        -76.7330   -2.7280  -31.2460 N.3   185  ASN185     -0.1240
     32  CA       -76.5040   -3.8650  -32.1640 C.3   185  ASN185      0.1653
     33  C        -75.7540   -3.4860  -33.4360 C.2   185  ASN185      0.2266
     34  O        -75.9260   -2.3820  -33.9510 O.2   185  ASN185     -0.2867
     35  CB       -77.7960   -4.5410  -32.5860 C.3   185  ASN185      0.1155
     36  CG       -78.7540   -3.6030  -33.3040 C.2   185  ASN185      0.2627
     37  OD1      -79.4200   -2.7690  -32.6720 O.2   185  ASN185     -0.2716
     38  ND2      -78.8860   -3.7850  -34.6180 N.am  185  ASN185     -0.0877
     39  N        -75.5250   -3.6710  -37.2960 N.3   187  GLU187     -0.1231
     40  CA       -76.5850   -3.6180  -38.3060 C.3   187  GLU187      0.1699
     41  C        -76.2670   -4.3520  -39.6140 C.2   187  GLU187      0.2592
     42  O        -75.2230   -4.9810  -39.7720 O.2   187  GLU187     -0.2718
     43  CB       -76.9670   -2.1510  -38.5710 C.3   187  GLU187      0.0402
     44  CG       -78.2470   -1.7130  -37.8340 C.3   187  GLU187      0.1161
     45  CD       -79.4590   -2.5370  -38.2160 C.2   187  GLU187      0.3649
     46  OE1      -80.3800   -2.7240  -37.3600 O.co2 187  GLU187     -0.2457
     47  OE2      -79.4890   -2.9960  -39.3770 O.co2 187  GLU187     -0.2457
     48  N        -77.1940   -4.2490  -40.5560 N.am  188  VAL188     -0.1980
     49  CA       -77.2090   -5.0850  -41.7510 C.3   188  VAL188      0.1595
     50  C        -76.0530   -4.7990  -42.7220 C.2   188  VAL188      0.2287
     51  O        -75.5050   -5.7190  -43.3300 O.2   188  VAL188     -0.2864
     52  CB       -78.5260   -4.9110  -42.4870 C.3   188  VAL188      0.0276
     53  CG1      -78.4890   -5.6730  -43.8120 C.3   188  VAL188      0.0022
     54  CG2      -79.6560   -5.3820  -41.6030 C.3   188  VAL188      0.0022
     55  N        -71.8290   -0.7970  -40.1320 N.3   192  GLN192     -0.1245
     56  CA       -73.0050   -0.0350  -39.6870 C.3   192  GLN192      0.1566
     57  C        -73.4770   -0.5660  -38.3430 C.2   192  GLN192      0.2260
     58  O        -73.5790   -1.7750  -38.1380 O.2   192  GLN192     -0.2867
     59  CB       -74.1210   -0.1290  -40.7150 C.3   192  GLN192      0.0367
     60  CG       -75.3280    0.7910  -40.4520 C.3   192  GLN192      0.0905
     61  CD       -76.4790    0.5550  -41.4450 C.2   192  GLN192      0.2608
     62  OE1      -76.9770   -0.5640  -41.5790 O.2   192  GLN192     -0.2717
     63  NE2      -76.8780    1.6090  -42.1530 N.am  192  GLN192     -0.0878
     64  N        -75.7600    0.4650  -34.3510 N.3   194  GLU194     -0.1245
     65  CA       -76.9630    1.0280  -33.7690 C.3   194  GLU194      0.1567
     66  C        -76.8430    1.1620  -32.2530 C.2   194  GLU194      0.2260
     67  O        -76.2950    0.2830  -31.5850 O.2   194  GLU194     -0.2867
     68  CB       -78.1430    0.1080  -34.0640 C.3   194  GLU194      0.0388
     69  CG       -79.5340    0.6930  -33.6690 C.3   194  GLU194      0.1160
     70  CD       -80.7080   -0.2440  -34.0250 C.2   194  GLU194      0.3649
     71  OE1      -80.6560   -0.8990  -35.0940 O.co2 194  GLU194     -0.2457
     72  OE2      -81.6710   -0.3220  -33.2300 O.co2 194  GLU194     -0.2457
     73  N        -77.8810   -1.3320  -47.0670 N.3   239  ASN239     -0.1225
     74  CA       -78.8930   -0.6900  -46.2560 C.3   239  ASN239      0.1785
     75  C        -78.5460    0.7450  -45.9490 C.2   239  ASN239      0.2597
     76  O        -77.3860    1.0660  -45.7200 O.2   239  ASN239     -0.2718
     77  CB       -79.0980   -1.4350  -44.9220 C.3   239  ASN239      0.1169
     78  CG       -80.0960   -2.5530  -45.0320 C.2   239  ASN239      0.2627
     79  OD1      -80.2300   -3.1720  -46.0720 O.2   239  ASN239     -0.2716
     80  ND2      -80.7900   -2.8150  -43.9590 N.am  239  ASN239     -0.0877
     81  N        -79.5710    1.5780  -45.9250 N.am  240  GLY240     -0.1957
     82  CA       -79.4950    2.9330  -45.4120 C.3   240  GLY240      0.1869
     83  C        -79.6250    2.9460  -43.9020 C.2   240  GLY240      0.2309
     84  O        -79.6630    1.9010  -43.2440 O.2   240  GLY240     -0.2863
     85  N        -81.5090    4.7360  -40.5560 N.3   242  GLY242     -0.1225
     86  CA       -82.6630    5.4830  -40.0710 C.3   242  GLY242      0.1811
     87  C        -82.5640    5.8040  -38.6050 C.2   242  GLY242      0.2280
     88  O        -81.5950    5.4520  -37.9530 O.2   242  GLY242     -0.2866
     89  N        -85.5320    5.1960  -36.3230 N.3   244  HIS244     -0.1241
     90  CA       -86.8410    4.7400  -35.9060 C.3   244  HIS244      0.1621
     91  C        -87.1720    5.3490  -34.5650 C.2   244  HIS244      0.2264
     92  O        -86.3830    5.2550  -33.6350 O.2   244  HIS244     -0.2867
     93  CB       -86.8970    3.2120  -35.7310 C.3   244  HIS244      0.0745
     94  CG       -86.4210    2.4360  -36.9130 C.ar  244  HIS244      0.0817
     95  ND1      -86.1140    1.0940  -36.8380 N.ar  244  HIS244     -0.2268
     96  CD2      -86.1660    2.8170  -38.1860 C.ar  244  HIS244      0.1154
     97  CE1      -85.6890    0.6830  -38.0190 C.ar  244  HIS244      0.1986
     98  NE2      -85.6900    1.7150  -38.8510 N.ar  244  HIS244     -0.2212
     99  N        -83.0660    6.9960  -48.9350 N.3   290  ARG290     -0.1245
    100  CA       -83.3470    5.8050  -48.0970 C.3   290  ARG290      0.1563
    101  C        -84.7480    5.1890  -48.3170 C.2   290  ARG290      0.2260
    102  O        -84.8850    3.9750  -48.5140 O.2   290  ARG290     -0.2867
    103  CB       -83.2330    6.1750  -46.6000 C.3   290  ARG290      0.0307
    104  CG       -83.6070    5.0380  -45.6550 C.3   290  ARG290      0.0489
    105  CD       -83.1150    5.2620  -44.2050 C.3   290  ARG290      0.2205
    106  NE       -84.0650    6.1360  -43.5790 N.pl3 290  ARG290     -0.0865
    107  CZ       -85.0240    5.7620  -42.7500 C.cat 290  ARG290      0.5346
    108  NH1      -85.1490    4.5220  -42.3010 N.pl3 290  ARG290      0.1354
    109  NH2      -85.8430    6.6950  -42.3300 N.pl3 290  ARG290      0.1354
    110  N        -84.7690   -2.5920  -48.6980 N.3   295  HIS295     -0.1226
    111  CA       -83.7490   -2.5430  -47.6380 C.3   295  HIS295      0.1752
    112  C        -84.3270   -2.1680  -46.2780 C.2   295  HIS295      0.2596
    113  O        -83.7550   -1.3530  -45.5030 O.2   295  HIS295     -0.2718
    114  CB       -82.5950   -1.6280  -48.0460 C.3   295  HIS295      0.0759
    115  CG       -81.8240   -2.1520  -49.2060 C.ar  295  HIS295      0.0818
    116  ND1      -81.9330   -1.6210  -50.4760 N.ar  295  HIS295     -0.2268
    117  CD2      -80.9680   -3.2050  -49.3040 C.ar  295  HIS295      0.1154
    118  CE1      -81.1410   -2.2970  -51.2940 C.ar  295  HIS295      0.1986
    119  NE2      -80.5370   -3.2580  -50.6080 N.ar  295  HIS295     -0.2212
    120  N        -85.4870   -2.7860  -46.0350 N.am  296  GLU296     -0.1965
    121  CA       -86.2630   -2.6600  -44.7900 C.3   296  GLU296      0.1733
    122  C        -86.7800   -1.2210  -44.5810 C.2   296  GLU296      0.2617
    123  O        -86.7380   -0.6670  -43.5030 O.2   296  GLU296     -0.2715
    124  CB       -85.4440   -3.2290  -43.6150 C.3   296  GLU296      0.0429
    125  CG       -84.7990   -4.6260  -43.9060 C.3   296  GLU296      0.1163
    126  CD       -84.2220   -5.2400  -42.6540 C.2   296  GLU296      0.3649
    127  OE1      -84.9790   -5.9910  -41.9920 O.co2 296  GLU296     -0.2457
    128  OE2      -83.0510   -4.9390  -42.2870 O.co2 296  GLU296     -0.2457
    129  N        -87.2890   -0.6240  -45.6520 N.am  297  THR297     -0.1951
    130  CA       -87.8370    0.7290  -45.5920 C.3   297  THR297      0.1897
    131  C        -89.2210    0.7290  -46.2200 C.2   297  THR297      0.2313
    132  O        -89.6040   -0.2130  -46.9280 O.2   297  THR297     -0.2863
    133  CB       -86.9170    1.7870  -46.3020 C.3   297  THR297      0.1794
    134  OG1      -86.9150    1.5850  -47.7290 O.3   297  THR297     -0.2208
    135  CG2      -85.4780    1.7390  -45.7440 C.3   297  THR297      0.0378
    136  N        -91.3260   -4.7320  -41.0770 N.3   310  ARG310     -0.1245
    137  CA       -90.1720   -3.8500  -41.3300 C.3   310  ARG310      0.1563
    138  C        -90.1730   -3.1810  -42.7210 C.2   310  ARG310      0.2260
    139  O        -89.2130   -2.5100  -43.1130 O.2   310  ARG310     -0.2867
    140  CB       -88.8700   -4.6150  -41.0670 C.3   310  ARG310      0.0307
    141  CG       -88.5960   -4.8520  -39.5770 C.3   310  ARG310      0.0489
    142  CD       -87.2760   -5.6250  -39.3420 C.3   310  ARG310      0.2205
    143  NE       -86.7690   -5.3690  -38.0060 N.pl3 310  ARG310     -0.0865
    144  CZ       -87.2370   -5.9520  -36.9060 C.cat 310  ARG310      0.5346
    145  NH1      -86.7380   -5.6290  -35.7120 N.pl3 310  ARG310      0.1354
    146  NH2      -88.2070   -6.8570  -36.9720 N.pl3 310  ARG310      0.1354
    147  N        -94.4610    0.2790  -37.6280 N.3   315  ARG315     -0.1245
    148  CA       -94.5510   -1.1200  -37.2440 C.3   315  ARG315      0.1563
    149  C        -95.0250   -1.1950  -35.8170 C.2   315  ARG315      0.2260
    150  O        -94.5470   -0.4720  -34.9550 O.2   315  ARG315     -0.2867
    151  CB       -93.1950   -1.8290  -37.3670 C.3   315  ARG315      0.0307
    152  CG       -92.8950   -2.8990  -36.2690 C.3   315  ARG315      0.0489
    153  CD       -91.8200   -3.8580  -36.7460 C.3   315  ARG315      0.2205
    154  NE       -91.2000   -4.6300  -35.6690 N.pl3 315  ARG315     -0.0865
    155  CZ       -90.0970   -4.2790  -35.0060 C.cat 315  ARG315      0.5346
    156  NH1      -89.4570   -3.1290  -35.2560 N.pl3 315  ARG315      0.1354
    157  NH2      -89.6350   -5.0900  -34.0620 N.pl3 315  ARG315      0.1354
    158  N        -93.7610    1.9680  -33.4690 N.3   329  GLU329     -0.1245
    159  CA       -92.4630    2.3720  -34.0160 C.3   329  GLU329      0.1567
    160  C        -92.6590    3.1190  -35.3420 C.2   329  GLU329      0.2260
    161  O        -93.0870    2.5350  -36.3360 O.2   329  GLU329     -0.2867
    162  CB       -91.6550    1.1170  -34.2730 C.3   329  GLU329      0.0388
    163  CG       -90.2370    1.3880  -34.7630 C.3   329  GLU329      0.1160
    164  CD       -89.6200    0.2240  -35.5780 C.2   329  GLU329      0.3649
    165  OE1      -90.3300   -0.6530  -36.1070 O.co2 329  GLU329     -0.2457
    166  OE2      -88.3830    0.2090  -35.7250 O.co2 329  GLU329     -0.2457
    167  N        -90.9770    4.2890  -38.4450 N.3   331  ARG331     -0.1245
    168  CA       -89.7420    3.8570  -39.0890 C.3   331  ARG331      0.1563
    169  C        -89.2800    4.8350  -40.1430 C.2   331  ARG331      0.2260
    170  O        -88.2490    4.6060  -40.7910 O.2   331  ARG331     -0.2867
    171  CB       -89.9080    2.4660  -39.7110 C.3   331  ARG331      0.0307
    172  CG       -90.0900    1.3970  -38.6750 C.3   331  ARG331      0.0489
    173  CD       -90.3310    0.0480  -39.2770 C.3   331  ARG331      0.2205
    174  NE       -89.2270   -0.3600  -40.1230 N.pl3 331  ARG331     -0.0865
    175  CZ       -88.1410   -1.0120  -39.7250 C.cat 331  ARG331      0.5346
    176  NH1      -87.9490   -1.3470  -38.4520 N.pl3 331  ARG331      0.1354
    177  NH2      -87.2250   -1.3410  -40.6210 N.pl3 331  ARG331      0.1354
@<TRIPOS>BOND
     1   118   119   ar
     2   118   116   ar
     3   119   117   ar
     4   116   115   ar
     5   117   115   ar
     6   115   114    1
     7    99   100    1
     8   110   111    1
     9   102   101    2
    10   101   100    1
    11   100   103    1
    12   114   111    1
    13   134   133    1
    14   111   112    1
    15    73    74    1
    16   132   131    2
    17   103   104    1
    18   133   135    1
    19   133   130    1
    20   112   120   am
    21   112   113    2
    22    74    75    1
    23    74    77    1
    24   131   130    1
    25    79    78    2
    26   120   121    1
    27    75    81   am
    28    75    76    2
    29    81    82    1
    30   104   105    1
    31   129   130    1
    32   129   122   am
    33    82    83    1
    34    78    77    1
    35    78    80   am
    36   121   122    1
    37   121   124    1
    38   122   123    2
    39   105   106    1
    40   125   124    1
    41   125   126    1
    42    83    84    2
    43    53    52    1
    44   106   107    2
    45    51    50    2
    46   139   138    2
    47   107   109    1
    48   107   108    1
    49    50    49    1
    50   138   137    1
    51   126   128   ar
    52   126   127   ar
    53    52    49    1
    54    52    54    1
    55    63    61   am
    56    49    48    1
    57    62    61    2
    58    61    60    1
    59   137   136    1
    60   137   140    1
    61   140   141    1
    62   170   169    2
    63    59    60    1
    64    59    56    1
    65   177   175    1
    66    48    41   am
    67    85    86    1
    68   169   168    1
    69    55    56    1
    70   174   175    2
    71   174   173    1
    72    86    87    1
    73    42    41    2
    74   175   176    1
    75   171   168    1
    76   171   172    1
    77    56    57    1
    78    19    20    1
    79    41    40    1
    80    17    16   ar
    81   141   142    1
    82    47    45   ar
    83   142   143    1
    84   173   172    1
    85    23    20    1
    86    23    24    1
    87   168   167    1
    88    98    96   ar
    89    98    97   ar
    90    20    21    1
    91    87    88    2
    92    43    40    1
    93    43    44    1
    94    16    18   ar
    95    16    15    1
    96    57    58    2
    97    40    39    1
    98    45    44    1
    99    45    46   ar
   100    96    94   ar
   101    24    25   ar
   102    24    26   ar
   103    97    95   ar
   104   143   144    2
   105    14    15    1
   106    14    11    1
   107    25    27   ar
   108   147   148    1
   109    26    28   ar
   110    22    21    2
   111    13    12    2
   112   151   148    1
   113   151   152    1
   114    12    11    1
   115   148   149    1
   116   146   144    1
   117    27    29   ar
   118    94    95   ar
   119    94    93    1
   120   144   145    1
   121    11    10    1
   122   153   152    1
   123   153   154    1
   124    28    29   ar
   125   161   160    2
   126    89    90    1
   127    29    30    1
   128   165   164   ar
   129    90    93    1
   130    90    91    1
   131   149   150    2
   132   166   164   ar
   133   154   155    2
   134   164   163    1
   135   160   159    1
   136   156   155    1
   137    71    70   ar
   138   155   157    1
   139     4     3    2
   140   163   162    1
   141    38    36   am
   142    91    92    2
   143    64    65    1
   144   162   159    1
   145    68    65    1
   146    68    69    1
   147    70    69    1
   148    70    72   ar
   149   159   158    1
   150     8     7   ar
   151    34    33    2
   152    65    66    1
   153     3     2    1
   154    33    32    1
   155     5     2    1
   156     5     6    1
   157     9     7   ar
   158    36    37    2
   159    36    35    1
   160     7     6    1
   161     2     1    1
   162    35    32    1
   163    66    67    2
   164    32    31    1
