@<TRIPOS>MOLECULE
tmp/2qctA00.pdb
 131 123 0 0 0
SMALL
GASTEIGER

@<TRIPOS>ATOM
      1  N          1.4620 -216.5510   24.8160 N.3    16  PHE16      -0.1227
      2  CA         0.9380 -215.3050   24.2760 C.3    16  PHE16       0.1736
      3  C          1.3270 -215.0610   22.8190 C.2    16  PHE16       0.2595
      4  O          0.4780 -214.7320   21.9970 O.2    16  PHE16      -0.2718
      5  CB         1.4080 -214.1300   25.1390 C.3    16  PHE16       0.0547
      6  CG         0.7270 -212.8390   24.8230 C.ar   16  PHE16      -0.0202
      7  CD1       -0.6340 -212.7000   25.0270 C.ar   16  PHE16      -0.0042
      8  CD2        1.4390 -211.7770   24.2840 C.ar   16  PHE16      -0.0042
      9  CE1       -1.2840 -211.5180   24.6870 C.ar   16  PHE16      -0.0003
     10  CE2        0.8040 -210.5910   23.9400 C.ar   16  PHE16      -0.0003
     11  CZ        -0.5600 -210.4590   24.1410 C.ar   16  PHE16      -0.0000
     12  N          2.6060 -215.2200   22.4950 N.am   17  LEU17      -0.1980
     13  CA         3.0490 -215.0010   21.1240 C.3    17  LEU17       0.1596
     14  C          2.2120 -215.8600   20.1820 C.2    17  LEU17       0.2287
     15  O          2.0490 -215.5200   19.0110 O.2    17  LEU17      -0.2864
     16  CB         4.5420 -215.3300   20.9820 C.3    17  LEU17       0.0297
     17  CG         5.2670 -214.8770   19.7040 C.3    17  LEU17       0.0022
     18  CD1        5.3000 -215.9850   18.6770 C.3    17  LEU17       0.0001
     19  CD2        4.5960 -213.6250   19.1650 C.3    17  LEU17       0.0001
     20  N         -0.6370 -213.9480   19.5420 N.3    20  LYS20      -0.1245
     21  CA        -0.2560 -212.8640   18.6450 C.3    20  LYS20       0.1561
     22  C         -0.4400 -213.4780   17.2640 C.2    20  LYS20       0.2260
     23  O         -1.0440 -212.8700   16.3700 O.2    20  LYS20      -0.2867
     24  CB         1.1920 -212.4580   18.8740 C.3    20  LYS20       0.0271
     25  CG         1.4710 -211.7590   20.1640 C.3    20  LYS20       0.0035
     26  CD         0.8600 -210.3730   20.1990 C.3    20  LYS20       0.0206
     27  CE         1.4910 -209.4260   19.1900 C.3    20  LYS20       0.1093
     28  NZ         1.0250 -208.0310   19.4580 N.3    20  LYS20      -0.1314
     29  N         -9.7660 -196.1160   17.4790 N.3    48  TYR48      -0.1241
     30  CA        -8.4910 -196.4810   16.8690 C.3    48  TYR48       0.1605
     31  C         -8.8320 -197.1590   15.5480 C.2    48  TYR48       0.2264
     32  O         -9.7710 -197.9560   15.4890 O.2    48  TYR48      -0.2867
     33  CB        -7.7180 -197.4620   17.7380 C.3    48  TYR48       0.0534
     34  CG        -7.2270 -196.9160   19.0560 C.ar   48  TYR48      -0.0201
     35  CD1       -8.0820 -196.7910   20.1500 C.ar   48  TYR48      -0.0009
     36  CD2       -5.8870 -196.5920   19.2320 C.ar   48  TYR48      -0.0009
     37  CE1       -7.6080 -196.3630   21.3880 C.ar   48  TYR48       0.0417
     38  CE2       -5.4090 -196.1650   20.4650 C.ar   48  TYR48       0.0417
     39  CZ        -6.2700 -196.0570   21.5330 C.ar   48  TYR48       0.1957
     40  OH        -5.7730 -195.6500   22.7450 O.3    48  TYR48      -0.2866
     41  N        -11.0270 -197.7450   33.2180 N.3   117  CYS117     -0.1235
     42  CA       -10.1210 -196.6380   32.8830 C.3   117  CYS117      0.1677
     43  C        -10.3550 -195.4230   33.7800 C.2   117  CYS117      0.2270
     44  O        -11.1830 -195.4410   34.6840 O.2   117  CYS117     -0.2867
     45  CB       -10.3460 -196.1750   31.4380 C.3   117  CYS117      0.0956
     46  SG       -10.0710 -197.4190   30.1720 S.3   117  CYS117     -0.0801
     47  N         -5.3620 -190.7830   31.8650 N.3   121  GLU121     -0.1231
     48  CA        -4.3520 -191.7210   32.3180 C.3   121  GLU121      0.1699
     49  C         -3.0390 -191.3810   31.6730 C.2   121  GLU121      0.2592
     50  O         -2.8710 -191.5070   30.4690 O.2   121  GLU121     -0.2718
     51  CB        -4.7530 -193.1650   31.9770 C.3   121  GLU121      0.0402
     52  CG        -5.8000 -193.7410   32.9420 C.3   121  GLU121      0.1161
     53  CD        -6.1850 -195.1920   32.6640 C.2   121  GLU121      0.3649
     54  OE1       -6.7570 -195.8410   33.5630 O.co2 121  GLU121     -0.2457
     55  OE2       -5.9350 -195.6900   31.5520 O.co2 121  GLU121     -0.2457
     56  N         -2.1010 -190.9280   32.4880 N.am  122  MET122     -0.1979
     57  CA        -0.7860 -190.5780   31.9830 C.3   122  MET122      0.1605
     58  C         -0.8860 -189.3780   31.0360 C.2   122  MET122      0.2287
     59  O         -0.4620 -189.4350   29.8770 O.2   122  MET122     -0.2864
     60  CB        -0.1830 -191.7980   31.2820 C.3   122  MET122      0.0413
     61  CG        -0.2290 -193.0680   32.1450 C.3   122  MET122      0.0598
     62  SD         0.5140 -194.5620   31.4390 S.3   122  MET122     -0.1393
     63  CE         2.1680 -194.5200   32.1640 C.3   122  MET122      0.0692
     64  N         -8.7200 -190.7350   27.6100 N.3   126  LYS126     -0.1245
     65  CA        -9.0500 -192.1400   27.3380 C.3   126  LYS126      0.1561
     66  C        -10.5490 -192.3770   27.1910 C.2   126  LYS126      0.2260
     67  O        -10.9530 -193.3040   26.5070 O.2   126  LYS126     -0.2867
     68  CB        -8.5150 -193.0380   28.4480 C.3   126  LYS126      0.0271
     69  CG        -7.0750 -192.7700   28.7920 C.3   126  LYS126      0.0035
     70  CD        -6.1600 -192.9820   27.6010 C.3   126  LYS126      0.0206
     71  CE        -6.0720 -194.4530   27.2570 C.3   126  LYS126      0.1093
     72  NZ        -5.1530 -194.6830   26.1220 N.3   126  LYS126     -0.1314
     73  N        -12.9360 -200.4390   28.4910 N.3   215  CYS215     -0.1221
     74  CA       -11.7590 -199.7760   29.0120 C.3   215  CYS215      0.1808
     75  C        -11.6650 -198.5970   28.0350 C.2   215  CYS215      0.2602
     76  O        -12.6500 -197.8730   27.8450 O.2   215  CYS215     -0.2717
     77  CB       -10.5320 -200.6810   28.9460 C.3   215  CYS215      0.0970
     78  SG       -10.1100 -201.2340   27.3270 S.3   215  CYS215     -0.0800
     79  N        -10.5210 -198.3830   27.4060 N.am  216  SER216     -0.1938
     80  CA       -10.4670 -197.2900   26.4570 C.3   216  SER216      0.2055
     81  C        -10.7540 -197.8830   25.0630 C.2   216  SER216      0.2642
     82  O        -11.8050 -197.6210   24.4750 O.2   216  SER216     -0.2714
     83  CB        -9.0970 -196.6230   26.5040 C.3   216  SER216      0.2130
     84  OG        -9.2150 -195.2290   26.3010 O.3   216  SER216     -0.2179
     85  N         -9.8340 -198.7040   24.5620 N.am  217  ALA217     -0.1977
     86  CA        -9.9780 -199.3320   23.2540 C.3   217  ALA217      0.1597
     87  C        -10.8030 -200.6140   23.3230 C.2   217  ALA217      0.2287
     88  O        -10.9080 -201.3690   22.3490 O.2   217  ALA217     -0.2864
     89  CB        -8.6030 -199.6240   22.6510 C.3   217  ALA217      0.0319
     90  N         -7.8310 -204.2290   25.8790 N.3   220  GLY220     -0.1210
     91  CA        -6.8170 -204.5560   26.8610 C.3   220  GLY220      0.1956
     92  C         -7.3610 -205.0480   28.1890 C.2   220  GLY220      0.2611
     93  O         -7.5070 -206.2340   28.3980 O.2   220  GLY220     -0.2717
     94  N         -7.6660 -204.1350   29.0950 N.am  221  ARG221     -0.1979
     95  CA        -8.1800 -204.5090   30.4080 C.3   221  ARG221      0.1597
     96  C         -9.5690 -205.1350   30.3220 C.2   221  ARG221      0.2287
     97  O         -9.9750 -205.9120   31.2060 O.2   221  ARG221     -0.2864
     98  CB        -8.2430 -203.2710   31.2950 C.3   221  ARG221      0.0334
     99  CG        -7.0210 -202.3900   31.1690 C.3   221  ARG221      0.0492
    100  CD        -7.2170 -201.1040   31.9320 C.3   221  ARG221      0.2205
    101  NE        -6.0150 -200.2730   31.9420 N.pl3 221  ARG221     -0.0865
    102  CZ        -5.8840 -199.1540   32.6530 C.cat 221  ARG221      0.5346
    103  NH1       -6.8860 -198.7230   33.4150 N.pl3 221  ARG221      0.1354
    104  NH2       -4.7460 -198.4690   32.6150 N.pl3 221  ARG221      0.1354
    105  N        -10.8420 -214.2820   22.0210 N.3   254  ARG254     -0.1245
    106  CA       -10.1470 -213.5100   20.9970 C.3   254  ARG254      0.1563
    107  C        -10.7430 -213.7660   19.6190 C.2   254  ARG254      0.2260
    108  O        -10.2600 -213.2570   18.6180 O.2   254  ARG254     -0.2867
    109  CB        -8.6650 -213.8800   20.9690 C.3   254  ARG254      0.0307
    110  CG        -7.7650 -212.9110   21.7110 C.3   254  ARG254      0.0489
    111  CD        -6.2910 -213.2770   21.5610 C.3   254  ARG254      0.2205
    112  NE        -5.4470 -212.1460   21.9210 N.pl3 254  ARG254     -0.0865
    113  CZ        -4.5470 -211.5930   21.1140 C.cat 254  ARG254      0.5346
    114  NH1       -4.3570 -212.0730   19.8940 N.pl3 254  ARG254      0.1354
    115  NH2       -3.8630 -210.5310   21.5170 N.pl3 254  ARG254      0.1354
    116  N         -4.4160 -207.6620   24.8850 N.3   262  GLN262     -0.1231
    117  CA        -3.3180 -207.2370   24.0130 C.3   262  GLN262      0.1698
    118  C         -1.8710 -207.1630   24.5180 C.2   262  GLN262      0.2592
    119  O         -0.9650 -206.8370   23.7440 O.2   262  GLN262     -0.2718
    120  CB        -3.6980 -205.8940   23.3600 C.3   262  GLN262      0.0381
    121  CG        -3.6070 -204.6730   24.2600 C.3   262  GLN262      0.0905
    122  CD        -4.1710 -203.4180   23.6070 C.2   262  GLN262      0.2608
    123  OE1       -4.0890 -203.2410   22.3850 O.2   262  GLN262     -0.2717
    124  NE2       -4.7410 -202.5330   24.4240 N.am  262  GLN262     -0.0878
    125  N         -1.6340 -207.4620   25.7880 N.am  263  THR263     -0.1953
    126  CA        -0.2710 -207.4090   26.3110 C.3   263  THR263      0.1897
    127  C          0.0010 -208.6490   27.1500 C.2   263  THR263      0.2313
    128  O         -0.9130 -209.1890   27.7630 O.2   263  THR263     -0.2863
    129  CB        -0.0590 -206.1550   27.1730 C.3   263  THR263      0.1794
    130  OG1       -0.8740 -206.2350   28.3460 O.3   263  THR263     -0.2208
    131  CG2       -0.4390 -204.9020   26.3890 C.3   263  THR263      0.0378
@<TRIPOS>BOND
     1    32    31    2
     2    31    30    1
     3    23    22    2
     4    30    29    1
     5    30    33    1
     6    22    21    1
     7    33    34    1
     8   108   107    2
     9    21    24    1
    10    21    20    1
    11    18    17    1
    12    24    25    1
    13    15    14    2
    14    34    36   ar
    15    34    35   ar
    16    19    17    1
    17    27    28    1
    18    27    26    1
    19    36    38   ar
    20   107   106    1
    21    17    16    1
    22   114   113    1
    23    35    37   ar
    24    25    26    1
    25    14    13    1
    26    38    39   ar
    27   109   106    1
    28   109   110    1
    29    16    13    1
    30   106   105    1
    31   113   115    1
    32   113   112    2
    33    13    12    1
    34    37    39   ar
    35    39    40    1
    36   111   110    1
    37   111   112    1
    38     4     3    2
    39    88    87    2
    40   123   122    2
    41    12     3   am
    42    89    86    1
    43     3     2    1
    44    86    87    1
    45    86    85    1
    46   120   117    1
    47   120   121    1
    48   122   121    1
    49   122   124   am
    50   119   118    2
    51    10    11   ar
    52    10     8   ar
    53   117   118    1
    54   117   116    1
    55    11     9   ar
    56     2     1    1
    57     2     5    1
    58     8     6   ar
    59    82    81    2
    60   118   125   am
    61    85    81   am
    62     9     7   ar
    63     6     7   ar
    64     6     5    1
    65    81    80    1
    66   125   126    1
    67    90    91    1
    68    72    71    1
    69    84    83    1
    70   126   127    1
    71   126   129    1
    72   131   129    1
    73    80    83    1
    74    80    79    1
    75    67    66    2
    76    91    92    1
    77   127   128    2
    78   129   130    1
    79    66    65    1
    80    71    70    1
    81    78    77    1
    82    65    64    1
    83    65    68    1
    84    79    75   am
    85    70    69    1
    86    76    75    2
    87    75    74    1
    88    92    93    2
    89    92    94   am
    90    68    69    1
    91    73    74    1
    92    77    74    1
    93    94    95    1
    94    59    58    2
    95    46    45    1
    96    96    95    1
    97    96    97    2
    98    95    98    1
    99    50    49    2
   100    58    57    1
   101    99    98    1
   102    99   100    1
   103    60    57    1
   104    60    61    1
   105    45    42    1
   106    62    61    1
   107    62    63    1
   108    55    53   ar
   109    49    48    1
   110    49    56   am
   111    47    48    1
   112   100   101    1
   113   101   102    2
   114    51    48    1
   115    51    52    1
   116    57    56    1
   117   104   102    1
   118   102   103    1
   119    53    52    1
   120    53    54   ar
   121    42    41    1
   122    42    43    1
   123    43    44    2
