@<TRIPOS>MOLECULE
tmp/2qcuA02.pdb
 159 150 0 0 0
SMALL
GASTEIGER

@<TRIPOS>ATOM
      1  N         38.3470   15.8660  -30.9950 N.3    51  LEU51      -0.1231
      2  CA        38.6060   14.6260  -31.7210 C.3    51  LEU51       0.1693
      3  C         39.1250   14.8820  -33.1400 C.2    51  LEU51       0.2591
      4  O         40.0740   14.2320  -33.5850 O.2    51  LEU51      -0.2718
      5  CB        37.3500   13.7480  -31.7440 C.3    51  LEU51       0.0284
      6  CG        37.5320   12.2920  -32.1860 C.3    51  LEU51       0.0019
      7  CD1       38.3530   11.5060  -31.1580 C.3    51  LEU51       0.0001
      8  CD2       36.1660   11.6600  -32.3890 C.3    51  LEU51       0.0001
      9  N         38.5200   15.8390  -33.8430 N.am   52  ARG52      -0.1980
     10  CA        38.8480   16.0480  -35.2580 C.3    52  ARG52       0.1597
     11  C         40.2220   16.6950  -35.4960 C.2    52  ARG52       0.2287
     12  O         40.7720   16.6200  -36.6020 O.2    52  ARG52      -0.2864
     13  CB        37.7300   16.8180  -35.9750 C.3    52  ARG52       0.0334
     14  CG        37.6750   18.3070  -35.6590 C.3    52  ARG52       0.0492
     15  CD        36.5610   19.0160  -36.4370 C.3    52  ARG52       0.2205
     16  NE        36.8100   20.4600  -36.5050 N.pl3  52  ARG52      -0.0865
     17  CZ        37.5170   21.0530  -37.4620 C.cat  52  ARG52       0.5346
     18  NH1       37.9670   20.3390  -38.4910 N.pl3  52  ARG52       0.1354
     19  NH2       37.7090   22.3740  -37.4300 N.pl3  52  ARG52       0.1354
     20  N         43.0100   15.7050  -34.1620 N.3    54  LEU54      -0.1231
     21  CA        44.0230   14.6450  -34.2870 C.3    54  LEU54       0.1693
     22  C         44.5030   14.3680  -35.7290 C.2    54  LEU54       0.2591
     23  O         45.7110   14.2170  -35.9850 O.2    54  LEU54      -0.2718
     24  CB        43.5340   13.3620  -33.6080 C.3    54  LEU54       0.0284
     25  CG        43.5780   13.4240  -32.0780 C.3    54  LEU54       0.0019
     26  CD1       42.9420   12.1830  -31.4370 C.3    54  LEU54       0.0001
     27  CD2       45.0000   13.6360  -31.5910 C.3    54  LEU54       0.0001
     28  N         43.5530   14.3170  -36.6610 N.am   55  GLU55      -0.1979
     29  CA        43.8410   14.2870  -38.0950 C.3    55  GLU55       0.1602
     30  C         44.7880   15.3910  -38.5550 C.2    55  GLU55       0.2287
     31  O         45.4270   15.2620  -39.5940 O.2    55  GLU55      -0.2864
     32  CB        42.5420   14.3440  -38.9120 C.3    55  GLU55       0.0415
     33  CG        42.0940   12.9820  -39.4280 C.3    55  GLU55       0.1163
     34  CD        40.7650   13.0160  -40.1710 C.2    55  GLU55       0.3649
     35  OE1       40.2270   14.1230  -40.4270 O.co2  55  GLU55      -0.2457
     36  OE2       40.2710   11.9200  -40.5250 O.co2  55  GLU55      -0.2457
     37  N         47.1190   16.7000  -36.4370 N.3    57  TYR57      -0.1241
     38  CA        48.2950   16.5590  -35.5690 C.3    57  TYR57       0.1605
     39  C         48.4140   17.5760  -34.4370 C.2    57  TYR57       0.2264
     40  O         49.5100   17.8050  -33.9240 O.2    57  TYR57      -0.2867
     41  CB        49.5990   16.5340  -36.3720 C.3    57  TYR57       0.0534
     42  CG        49.5210   15.6720  -37.6030 C.ar   57  TYR57      -0.0201
     43  CD1       49.2370   14.3150  -37.5000 C.ar   57  TYR57      -0.0009
     44  CD2       49.6690   16.2260  -38.8690 C.ar   57  TYR57      -0.0009
     45  CE1       49.1110   13.5280  -38.6280 C.ar   57  TYR57       0.0417
     46  CE2       49.5800   15.4420  -40.0020 C.ar   57  TYR57       0.0417
     47  CZ        49.2920   14.0970  -39.8730 C.ar   57  TYR57       0.1957
     48  OH        49.1850   13.3100  -40.9960 O.3    57  TYR57      -0.2866
     49  N         29.4890    8.0070  -32.6440 N.3    87  LEU87      -0.1245
     50  CA        30.0190    8.2150  -33.9770 C.3    87  LEU87       0.1561
     51  C         29.5780    7.0540  -34.8750 C.2    87  LEU87       0.2260
     52  O         30.1250    5.9600  -34.7580 O.2    87  LEU87      -0.2867
     53  CB        31.5400    8.2270  -33.8620 C.3    87  LEU87       0.0270
     54  CG        32.3400    8.3770  -35.1610 C.3    87  LEU87       0.0019
     55  CD1       32.2340    9.8120  -35.7100 C.3    87  LEU87       0.0001
     56  CD2       33.7670    8.0330  -34.8760 C.3    87  LEU87       0.0001
     57  N         36.1250    7.2150  -43.3360 N.3    94  ARG94      -0.1245
     58  CA        37.2450    6.8360  -42.4980 C.3    94  ARG94       0.1563
     59  C         37.1310    5.3490  -42.1790 C.2    94  ARG94       0.2260
     60  O         36.0500    4.8540  -41.8370 O.2    94  ARG94      -0.2867
     61  CB        37.2940    7.6400  -41.1980 C.3    94  ARG94       0.0307
     62  CG        37.4440    9.1430  -41.4080 C.3    94  ARG94       0.0489
     63  CD        37.4520    9.9100  -40.0900 C.3    94  ARG94       0.2205
     64  NE        37.7520   11.3170  -40.3480 N.pl3  94  ARG94      -0.0865
     65  CZ        36.8770   12.1990  -40.8180 C.cat  94  ARG94       0.5346
     66  NH1       35.6000   11.8640  -41.0090 N.pl3  94  ARG94       0.1354
     67  NH2       37.2700   13.4430  -41.0110 N.pl3  94  ARG94       0.1354
     68  N         39.6860    0.9020  -38.8030 N.3    97  TRP97      -0.1227
     69  CA        40.9890    0.8090  -38.1540 C.3    97  TRP97       0.1737
     70  C         41.5370    2.1410  -37.6610 C.2    97  TRP97       0.2595
     71  O         42.0650    2.2350  -36.5610 O.2    97  TRP97      -0.2718
     72  CB        42.0110    0.0600  -39.0240 C.3    97  TRP97       0.0564
     73  CG        42.4660    0.7730  -40.2700 C.ar   97  TRP97       0.0003
     74  CD1       41.9960    0.5820  -41.5370 C.ar   97  TRP97       0.0946
     75  CD2       43.5190    1.7440  -40.3730 C.ar   97  TRP97       0.0152
     76  NE1       42.6990    1.3720  -42.4240 N.ar   97  TRP97      -0.2442
     77  CE2       43.6540    2.0740  -41.7360 C.ar   97  TRP97       0.0810
     78  CE3       44.3690    2.3520  -39.4480 C.ar   97  TRP97       0.0012
     79  CZ2       44.5750    3.0170  -42.1890 C.ar   97  TRP97       0.0191
     80  CZ3       45.3130    3.2590  -39.9020 C.ar   97  TRP97       0.0001
     81  CH2       45.4190    3.5690  -41.2650 C.ar   97  TRP97       0.0015
     82  N         41.3940    3.1760  -38.4740 N.am   98  MET98      -0.1965
     83  CA        41.7920    4.5230  -38.0960 C.3    98  MET98       0.1736
     84  C         41.0080    5.0200  -36.8680 C.2    98  MET98       0.2616
     85  O         41.5960    5.5240  -35.9130 O.2    98  MET98      -0.2715
     86  CB        41.6080    5.4490  -39.3030 C.3    98  MET98       0.0427
     87  CG        41.8610    6.9250  -39.0450 C.3    98  MET98       0.0599
     88  SD        41.4440    7.8950  -40.5080 S.3    98  MET98      -0.1393
     89  CE        42.5670    7.1480  -41.6960 C.3    98  MET98       0.0692
     90  N         39.7000    4.7800  -36.8480 N.am   99  ILE99      -0.1977
     91  CA        38.8860    5.1660  -35.7000 C.3    99  ILE99       0.1596
     92  C         39.2980    4.3880  -34.4480 C.2    99  ILE99       0.2287
     93  O         39.4400    4.9580  -33.3670 O.2    99  ILE99      -0.2864
     94  CB        37.3760    4.9900  -35.9570 C.3    99  ILE99       0.0276
     95  CG1       36.9090    5.7220  -37.2240 C.3    99  ILE99       0.0022
     96  CG2       36.5800    5.3920  -34.7320 C.3    99  ILE99       0.0022
     97  CD1       36.9900    7.2330  -37.1740 C.3    99  ILE99       0.0001
     98  N         41.9800    3.4280  -33.4220 N.3   101  ILE101     -0.1231
     99  CA        43.1770    3.9950  -32.7840 C.3   101  ILE101      0.1692
    100  C         42.9680    5.4370  -32.3210 C.2   101  ILE101      0.2593
    101  O         43.3160    5.7950  -31.1940 O.2   101  ILE101     -0.2718
    102  CB        44.3780    4.0350  -33.7500 C.3   101  ILE101      0.0266
    103  CG1       44.7220    2.6450  -34.2770 C.3   101  ILE101      0.0019
    104  CG2       45.5880    4.6780  -33.0810 C.3   101  ILE101      0.0020
    105  CD1       45.6780    2.6870  -35.4560 C.3   101  ILE101      0.0001
    106  N         42.4880    6.2900  -33.2190 N.am  102  GLY102     -0.1942
    107  CA        42.0580    7.6370  -32.8380 C.3   102  GLY102      0.2014
    108  C         41.4620    7.6790  -31.4420 C.2   102  GLY102      0.2638
    109  O         41.7420    8.5930  -30.6620 O.2   102  GLY102     -0.2714
    110  N         40.6860    6.6460  -31.1170 N.am  103  LEU103     -0.1977
    111  CA        39.9180    6.5910  -29.8750 C.3   103  LEU103      0.1596
    112  C         40.8160    6.3360  -28.6590 C.2   103  LEU103      0.2287
    113  O         40.5910    6.8970  -27.5810 O.2   103  LEU103     -0.2864
    114  CB        38.7920    5.5500  -29.9780 C.3   103  LEU103      0.0297
    115  CG        37.3300    6.0200  -30.0790 C.3   103  LEU103      0.0022
    116  CD1       37.1810    7.5130  -30.3530 C.3   103  LEU103      0.0001
    117  CD2       36.4780    5.1920  -31.0380 C.3   103  LEU103      0.0001
    118  N         44.0740    7.3320  -28.4400 N.3   105  MET105     -0.1245
    119  CA        44.7210    8.6330  -28.2210 C.3   105  MET105      0.1570
    120  C         43.8390    9.5660  -27.3860 C.2   105  MET105      0.2261
    121  O         44.2750   10.1270  -26.3790 O.2   105  MET105     -0.2867
    122  CB        45.0510    9.3060  -29.5590 C.3   105  MET105      0.0387
    123  CG        46.0100    8.5180  -30.4360 C.3   105  MET105      0.0595
    124  SD        46.5360    9.4840  -31.8690 S.3   105  MET105     -0.1393
    125  CE        45.2830    9.0590  -33.0800 C.3   105  MET105      0.0692
    126  N         28.0010   12.3680  -33.2010 N.3   245  ILE245     -0.1245
    127  CA        28.9460   13.1140  -34.0370 C.3   245  ILE245      0.1561
    128  C         28.9260   12.4630  -35.4100 C.2   245  ILE245      0.2260
    129  O         29.1580   11.2550  -35.5200 O.2   245  ILE245     -0.2867
    130  CB        30.3500   13.1760  -33.4330 C.3   245  ILE245      0.0252
    131  CG1       31.3760   13.6830  -34.4360 C.3   245  ILE245      0.0019
    132  CG2       30.8230   11.8580  -32.7990 C.3   245  ILE245      0.0019
    133  CD1       32.6900   14.1400  -33.7870 C.3   245  ILE245      0.0001
    134  N         29.9270   12.1190  -39.4070 N.3   247  GLN247     -0.1245
    135  CA        30.9470   12.3520  -40.4340 C.3   247  GLN247      0.1566
    136  C         30.3270   12.7550  -41.7540 C.2   247  GLN247      0.2260
    137  O         29.5920   11.9890  -42.4110 O.2   247  GLN247     -0.2867
    138  CB        31.7540   11.0660  -40.6620 C.3   247  GLN247      0.0367
    139  CG        32.3600   10.5210  -39.4000 C.3   247  GLN247      0.0905
    140  CD        33.2030    9.2790  -39.6870 C.2   247  GLN247      0.2608
    141  OE1       34.2780    9.3730  -40.2660 O.2   247  GLN247     -0.2717
    142  NE2       32.7000    8.1100  -39.2930 N.am  247  GLN247     -0.0878
    143  N         34.4320   15.7820  -45.0430 N.3   251  LYS251     -0.1245
    144  CA        35.3930   15.4580  -43.9950 C.3   251  LYS251      0.1561
    145  C         35.2240   16.2140  -42.6830 C.2   251  LYS251      0.2260
    146  O         35.9670   15.9800  -41.7080 O.2   251  LYS251     -0.2867
    147  CB        36.8450   15.5340  -44.4690 C.3   251  LYS251      0.0271
    148  CG        37.1220   14.6610  -45.6730 C.3   251  LYS251      0.0035
    149  CD        38.4200   13.8890  -45.4920 C.3   251  LYS251      0.0206
    150  CE        38.1980   12.6660  -44.6000 C.3   251  LYS251      0.1093
    151  NZ        36.7510   12.2700  -44.5800 N.3   251  LYS251     -0.1314
    152  N         32.9540   17.2370  -39.3100 N.3   253  ILE253     -0.1245
    153  CA        32.0010   16.5610  -38.4430 C.3   253  ILE253      0.1561
    154  C         30.9130   17.5390  -37.9930 C.2   253  ILE253      0.2260
    155  O         31.1520   18.7460  -37.9080 O.2   253  ILE253     -0.2867
    156  CB        32.7060   15.8330  -37.2420 C.3   253  ILE253      0.0252
    157  CG1       33.5630   16.7710  -36.3930 C.3   253  ILE253      0.0019
    158  CG2       33.5470   14.6350  -37.7280 C.3   253  ILE253      0.0019
    159  CD1       32.8150   17.5930  -35.3540 C.3   253  ILE253      0.0001
@<TRIPOS>BOND
     1   148   149    1
     2   148   147    1
     3   149   150    1
     4   143   144    1
     5   150   151    1
     6   147   144    1
     7   144   145    1
     8    57    58    1
     9   145   146    2
    10    58    59    1
    11    58    61    1
    12    76    77   ar
    13    76    74   ar
    14   137   136    2
    15    79    77   ar
    16    79    81   ar
    17    59    60    2
    18   136   135    1
    19    77    75   ar
    20    89    88    1
    21    74    73   ar
    22    62    61    1
    23    62    63    1
    24    81    80   ar
    25    67    65    1
    26    66    65    1
    27    48    47    1
    28    65    64    2
    29   138   135    1
    30   138   139    1
    31    36    34   ar
    32    88    87    1
    33   135   134    1
    34    35    34   ar
    35    75    73   ar
    36    75    78   ar
    37    64    63    1
    38    73    72    1
    39   141   140    2
    40    34    33    1
    41    46    47   ar
    42    46    44   ar
    43    80    78   ar
    44    47    45   ar
    45   140   139    1
    46   140   142   am
    47    31    30    2
    48    33    32    1
    49   152   153    1
    50    86    87    1
    51    86    83    1
    52    72    69    1
    53    32    29    1
    54    44    42   ar
    55    68    69    1
    56    45    43   ar
    57    30    29    1
    58    18    17    1
    59    82    83    1
    60    82    70   am
    61   153   154    1
    62   153   156    1
    63    69    70    1
    64    83    84    1
    65    29    28    1
    66   154   155    2
    67   158   156    1
    68    70    71    2
    69    42    43   ar
    70    42    41    1
    71    17    19    1
    72    17    16    2
    73   156   157    1
    74    95    97    1
    75    95    94    1
    76    84    90   am
    77    84    85    2
    78    90    91    1
    79    28    22   am
    80    12    11    2
    81    16    15    1
    82    15    14    1
    83    37    38    1
    84   157   159    1
    85    41    38    1
    86    23    22    2
    87    13    14    1
    88    13    10    1
    89    94    91    1
    90    94    96    1
    91    22    21    1
    92    55    54    1
    93    91    92    1
    94    38    39    1
    95   129   128    2
    96    11    10    1
    97   105   103    1
    98   128   127    1
    99    10     9    1
   100    54    56    1
   101    54    53    1
   102    51    52    2
   103    51    50    1
   104    92    93    2
   105    39    40    2
   106   131   133    1
   107   131   130    1
   108    21    20    1
   109    21    24    1
   110   103   102    1
   111   127   130    1
   112   127   126    1
   113    50    53    1
   114    50    49    1
   115     9     3   am
   116   102   104    1
   117   102    99    1
   118    24    25    1
   119     4     3    2
   120   130   132    1
   121    98    99    1
   122   106   107    1
   123   106   100   am
   124     3     2    1
   125   125   124    1
   126   107   108    1
   127    99   100    1
   128     8     6    1
   129   100   101    2
   130     6     5    1
   131     6     7    1
   132    25    27    1
   133    25    26    1
   134   124   123    1
   135     5     2    1
   136     2     1    1
   137   108   110   am
   138   108   109    2
   139   110   111    1
   140   117   115    1
   141   123   122    1
   142   116   115    1
   143   115   114    1
   144   114   111    1
   145   111   112    1
   146   122   119    1
   147   112   113    2
   148   118   119    1
   149   119   120    1
   150   120   121    2
