@<TRIPOS>MOLECULE
tmp/2qcvA00.pdb
 97 87 0 0 0
SMALL
GASTEIGER

@<TRIPOS>ATOM
      1  N         76.6120   16.4500   -0.2890 N.3    42  SER42      -0.1217
      2  CA        76.3570   17.8960   -0.0740 C.3    42  SER42       0.1889
      3  C         76.3180   18.7800   -1.3400 C.2    42  SER42       0.2288
      4  O         75.3080   19.4430   -1.5580 O.2    42  SER42      -0.2866
      5  CB        77.3130   18.4570    0.9700 C.3    42  SER42       0.2089
      6  OG        77.2150   19.8590    0.9860 O.3    42  SER42      -0.2183
      7  N         81.4960   25.8930    1.2940 N.3   169  GLU169     -0.1245
      8  CA        80.5680   25.3100    2.2350 C.3   169  GLU169      0.1567
      9  C         81.3190   24.3050    3.0860 C.2   169  GLU169      0.2260
     10  O         81.8240   23.3000    2.5820 O.2   169  GLU169     -0.2867
     11  CB        79.4070   24.6710    1.4690 C.3   169  GLU169      0.0388
     12  CG        78.0700   24.8290    2.1450 C.3   169  GLU169      0.1160
     13  CD        77.9530   24.0460    3.4020 C.2   169  GLU169      0.3649
     14  OE1       78.7010   23.0690    3.5730 O.co2 169  GLU169     -0.2457
     15  OE2       77.0830   24.3810    4.2140 O.co2 169  GLU169     -0.2457
     16  N         80.6910   21.9430    5.4080 N.3   171  ASP171     -0.1239
     17  CA        80.2950   20.5190    5.1930 C.3   171  ASP171      0.1674
     18  C         81.2110   19.5550    5.9130 C.2   171  ASP171      0.2266
     19  O         81.9430   18.8670    5.2410 O.2   171  ASP171     -0.2867
     20  CB        80.4150   20.1700    3.6500 C.3   171  ASP171      0.1410
     21  CG        80.1210   18.6710    3.3260 C.2   171  ASP171      0.3668
     22  OD1       79.1550   18.1010    3.9190 O.co2 171  ASP171     -0.2456
     23  OD2       80.8870   18.0900    2.4990 O.co2 171  ASP171     -0.2456
     24  N         78.6600   25.9760   10.0210 N.3   200  THR200     -0.1218
     25  CA        78.2330   26.0540   11.3840 C.3   200  THR200      0.1862
     26  C         79.3750   26.5490   12.2570 C.2   200  THR200      0.2287
     27  O         80.5530   26.4480   11.9000 O.2   200  THR200     -0.2866
     28  CB        77.7470   24.6750   11.9100 C.3   200  THR200      0.1770
     29  OG1       78.8600   23.7720   11.9890 O.3   200  THR200     -0.2211
     30  CG2       76.6520   24.0870   11.0120 C.3   200  THR200      0.0375
     31  N         81.8900   23.9000   12.6440 N.3   203  GLU203     -0.1245
     32  CA        82.7140   23.7710   11.4610 C.3   203  GLU203      0.1567
     33  C         83.8090   24.8500   11.3940 C.2   203  GLU203      0.2260
     34  O         84.9520   24.5720   10.9940 O.2   203  GLU203     -0.2867
     35  CB        81.8220   23.7590   10.2300 C.3   203  GLU203      0.0388
     36  CG        81.0150   22.5060   10.1110 C.3   203  GLU203      0.1160
     37  CD        79.9090   22.5110    9.0470 C.2   203  GLU203      0.3649
     38  OE1       79.4190   23.5540    8.5930 O.co2 203  GLU203     -0.2457
     39  OE2       79.5300   21.4100    8.6340 O.co2 203  GLU203     -0.2457
     40  N         76.5490   29.6640   11.2120 N.3   234  LYS234     -0.1245
     41  CA        75.2470   29.1320   11.6510 C.3   234  LYS234      0.1561
     42  C         75.3340   28.4960   13.0250 C.2   234  LYS234      0.2260
     43  O         76.2920   27.7640   13.3530 O.2   234  LYS234     -0.2867
     44  CB        74.7540   28.1010   10.6560 C.3   234  LYS234      0.0271
     45  CG        74.7400   28.6280    9.2060 C.3   234  LYS234      0.0035
     46  CD        74.3900   27.5210    8.2610 C.3   234  LYS234      0.0206
     47  CE        75.5380   26.6000    7.9620 C.3   234  LYS234      0.1093
     48  NZ        75.0490   25.3280    7.3000 N.3   234  LYS234     -0.1314
     49  N         72.4310   26.8570   14.5640 N.3   236  GLY236     -0.1225
     50  CA        71.2360   26.0410   14.7810 C.3   236  GLY236      0.1811
     51  C         70.0800   26.8820   15.3040 C.2   236  GLY236      0.2280
     52  O         69.7580   27.9260   14.7630 O.2   236  GLY236     -0.2866
     53  N         67.1050   15.2210   10.1940 N.3   262  THR262     -0.1218
     54  CA        67.8870   16.4470   10.0440 C.3   262  THR262      0.1862
     55  C         68.8480   16.4770    8.8670 C.2   262  THR262      0.2287
     56  O         69.4510   17.5320    8.5820 O.2   262  THR262     -0.2866
     57  CB        68.6540   16.7740   11.3050 C.3   262  THR262      0.1770
     58  OG1       69.5230   15.6890   11.6200 O.3   262  THR262     -0.2211
     59  CG2       67.6660   17.0470   12.4610 C.3   262  THR262      0.0375
     60  N         70.4480   16.9450    5.3280 N.3   264  GLY264     -0.1210
     61  CA        70.0980   17.8810    4.2430 C.3   264  GLY264      0.1956
     62  C         69.7350   19.3010    4.6500 C.2   264  GLY264      0.2612
     63  O         69.5600   20.1420    3.7700 O.2   264  GLY264     -0.2717
     64  N         69.5870   19.5710    5.9570 N.am  265  ALA265     -0.1965
     65  CA        69.2660   20.9110    6.4480 C.3   265  ALA265      0.1728
     66  C         70.2550   21.9150    5.8790 C.2   265  ALA265      0.2617
     67  O         69.8730   22.9820    5.4010 O.2   265  ALA265     -0.2715
     68  CB        69.2870   20.9590    8.0120 C.3   265  ALA265      0.0334
     69  N         71.5350   21.5800    5.9500 N.am  266  GLY266     -0.1940
     70  CA        72.5980   22.5250    5.5680 C.3   266  GLY266      0.2014
     71  C         72.6820   22.7850    4.0780 C.2   266  GLY266      0.2638
     72  O         73.0680   23.8730    3.6420 O.2   266  GLY266     -0.2714
     73  N         72.3370   21.7750    3.2900 N.am  267  ASP267     -0.1971
     74  CA        72.3940   21.9250    1.8320 C.3   267  ASP267      0.1709
     75  C         71.2130   22.7330    1.3130 C.2   267  ASP267      0.2293
     76  O         71.3430   23.5030    0.3480 O.2   267  ASP267     -0.2864
     77  CB        72.4380   20.5490    1.2020 C.3   267  ASP267      0.1436
     78  CG        73.6610   19.7690    1.6140 C.2   267  ASP267      0.3671
     79  OD1       74.7620   20.3670    1.8060 O.co2 267  ASP267     -0.2456
     80  OD2       73.5470   18.5280    1.6770 O.co2 267  ASP267     -0.2456
     81  N         69.8070   25.0130    3.2760 N.3   269  TYR269     -0.1241
     82  CA        70.1950   26.3460    3.7110 C.3   269  TYR269      0.1605
     83  C         71.0580   27.0550    2.6520 C.2   269  TYR269      0.2264
     84  O         70.7680   28.1770    2.2680 O.2   269  TYR269     -0.2867
     85  CB        70.8720   26.2790    5.0840 C.3   269  TYR269      0.0534
     86  CG        71.1810   27.6270    5.6780 C.ar  269  TYR269     -0.0201
     87  CD1       72.2010   28.4180    5.1570 C.ar  269  TYR269     -0.0009
     88  CD2       70.4480   28.1240    6.7640 C.ar  269  TYR269     -0.0009
     89  CE1       72.4840   29.6790    5.6950 C.ar  269  TYR269      0.0417
     90  CE2       70.7390   29.3660    7.3160 C.ar  269  TYR269      0.0417
     91  CZ        71.7450   30.1330    6.7850 C.ar  269  TYR269      0.1957
     92  OH        72.0290   31.3560    7.3310 O.3   269  TYR269     -0.2866
     93  N         65.8790   25.0800    5.1420 N.3   294  ALA294     -0.1245
     94  CA        66.3140   24.0870    6.1400 C.3   294  ALA294      0.1562
     95  C         65.1950   23.4960    6.9540 C.2   294  ALA294      0.2260
     96  O         65.1180   22.2700    7.1390 O.2   294  ALA294     -0.2867
     97  CB        67.3490   24.6740    7.0750 C.3   294  ALA294      0.0290
@<TRIPOS>BOND
     1     4     3    2
     2     3     2    1
     3     1     2    1
     4     2     5    1
     5    76    75    2
     6     5     6    1
     7    77    78    1
     8    77    74    1
     9     7     8    1
    10    75    74    1
    11    11    12    1
    12    11     8    1
    13    78    80   ar
    14    78    79   ar
    15    74    73    1
    16    12    13    1
    17     8     9    1
    18    84    83    2
    19    23    21   ar
    20    10     9    2
    21    83    82    1
    22    81    82    1
    23    73    71   am
    24    21    20    1
    25    21    22   ar
    26    13    14   ar
    27    13    15   ar
    28    72    71    2
    29    20    17    1
    30    82    85    1
    31    63    62    2
    32    71    70    1
    33    61    62    1
    34    61    60    1
    35    62    64   am
    36    85    86    1
    37    93    94    1
    38    87    86   ar
    39    87    89   ar
    40    17    16    1
    41    17    18    1
    42    19    18    2
    43    67    66    2
    44    70    69    1
    45    86    88   ar
    46    89    91   ar
    47    66    69   am
    48    66    65    1
    49    64    65    1
    50    94    95    1
    51    94    97    1
    52    65    68    1
    53    88    90   ar
    54    91    90   ar
    55    91    92    1
    56    95    96    2
    57    48    47    1
    58    47    46    1
    59    46    45    1
    60    56    55    2
    61    38    37   ar
    62    39    37   ar
    63    55    54    1
    64    37    36    1
    65    45    44    1
    66    24    25    1
    67    54    53    1
    68    54    57    1
    69    36    35    1
    70    35    32    1
    71    44    41    1
    72    34    33    2
    73    30    28    1
    74    40    41    1
    75    57    58    1
    76    57    59    1
    77    25    28    1
    78    25    26    1
    79    33    32    1
    80    32    31    1
    81    41    42    1
    82    27    26    2
    83    28    29    1
    84    42    43    2
    85    49    50    1
    86    52    51    2
    87    50    51    1
