@<TRIPOS>MOLECULE
tmp/2qd9A00.pdb
 195 180 0 0 0
SMALL
GASTEIGER

@<TRIPOS>ATOM
      1  N        -13.2650   -1.3730   27.7690 N.3    24  SER24      -0.1203
      2  CA       -12.5960   -0.9540   28.9750 C.3    24  SER24       0.2005
      3  C        -11.3990   -0.0640   28.5830 C.2    24  SER24       0.2461
      4  O        -10.5440   -0.4980   27.8140 O.2    24  SER24      -0.2732
      5  CB       -12.0960   -2.1810   29.7080 C.3    24  SER24       0.2103
      6  OG       -11.5530   -1.8100   30.9440 O.3    24  SER24      -0.2182
      7  N        -11.3280    1.1550   29.1130 N.am   25  PRO25      -0.2717
      8  CA       -10.2770    2.1040   28.7080 C.3    25  PRO25       0.1535
      9  C         -8.8860    1.6350   29.0980 C.2    25  PRO25       0.2598
     10  O         -8.7320    1.0320   30.1680 O.2    25  PRO25      -0.2715
     11  CB       -10.6590    3.3970   29.4410 C.3    25  PRO25       0.0310
     12  CG       -11.5470    2.9590   30.5670 C.3    25  PRO25       0.0237
     13  CD       -12.2330    1.7180   30.1350 C.3    25  PRO25       0.0939
     14  N         -7.8890    1.8960   28.2470 N.am   26  VAL26      -0.1978
     15  CA        -6.4910    1.5370   28.5180 C.3    26  VAL26       0.1596
     16  C         -5.5460    2.7080   28.2420 C.2    26  VAL26       0.2287
     17  O         -6.0160    3.7650   27.8420 O.2    26  VAL26      -0.2864
     18  CB        -6.0450    0.3070   27.7180 C.3    26  VAL26       0.0276
     19  CG1       -6.8570   -0.9300   28.1240 C.3    26  VAL26       0.0022
     20  CG2       -6.1750    0.5560   26.2340 C.3    26  VAL26       0.0022
     21  N         -3.6660    6.5960   23.0030 N.3    27  GLY27      -0.1225
     22  CA        -3.2790    6.2440   21.6260 C.3    27  GLY27       0.1811
     23  C         -2.8090    7.4610   20.8420 C.2    27  GLY27       0.2280
     24  O         -3.0250    8.5730   21.2960 O.2    27  GLY27      -0.2866
     25  N         -8.0750    4.8750   23.5940 N.3    32  VAL32      -0.1245
     26  CA        -8.0190    3.4260   23.3270 C.3    32  VAL32       0.1561
     27  C         -8.7120    2.6700   24.4230 C.2    32  VAL32       0.2260
     28  O         -8.5070    2.9350   25.6170 O.2    32  VAL32      -0.2867
     29  CB        -6.5900    2.9110   23.2350 C.3    32  VAL32       0.0252
     30  CG1       -6.5550    1.4740   22.8250 C.3    32  VAL32       0.0019
     31  CG2       -5.8010    3.6960   22.1560 C.3    32  VAL32       0.0019
     32  N         -9.8620   -1.4660   25.5000 N.3    34  ALA34      -0.1245
     33  CA        -9.7910   -2.8730   25.2030 C.3    34  ALA34       0.1562
     34  C        -11.2350   -3.3570   25.0680 C.2    34  ALA34       0.2260
     35  O        -12.1520   -2.8050   25.6660 O.2    34  ALA34      -0.2867
     36  CB        -9.1090   -3.6510   26.3340 C.3    34  ALA34       0.0290
     37  N         -9.1270  -10.8130   21.7840 N.3    43  ARG43      -0.1245
     38  CA        -9.1230   -9.6320   22.6140 C.3    43  ARG43       0.1563
     39  C         -8.4880   -8.5330   21.7650 C.2    43  ARG43       0.2260
     40  O         -7.3580   -8.7190   21.2650 O.2    43  ARG43      -0.2867
     41  CB        -8.3240   -9.8260   23.9000 C.3    43  ARG43       0.0307
     42  CG        -9.0730  -10.6460   24.9480 C.3    43  ARG43       0.0489
     43  CD        -9.9960   -9.8180   25.8220 C.3    43  ARG43       0.2205
     44  NE        -9.2300   -9.0350   26.8030 N.pl3  43  ARG43      -0.0865
     45  CZ        -9.5960   -7.8400   27.2890 C.cat  43  ARG43       0.5346
     46  NH1      -10.7150   -7.2600   26.8850 N.pl3  43  ARG43       0.1354
     47  NH2       -8.8300   -7.2170   28.1800 N.pl3  43  ARG43       0.1354
     48  N         -7.9200   -4.1820   20.6610 N.3    45  ALA45      -0.1245
     49  CA        -7.8530   -2.8250   21.1060 C.3    45  ALA45       0.1562
     50  C         -8.5230   -1.9310   20.0950 C.2    45  ALA45       0.2260
     51  O         -8.3710   -2.1400   18.8820 O.2    45  ALA45      -0.2867
     52  CB        -6.4190   -2.4230   21.2410 C.3    45  ALA45       0.0290
     53  N         -9.2870    2.0580   18.7500 N.3    47  LYS47      -0.1245
     54  CA        -8.8500    3.4260   19.0750 C.3    47  LYS47       0.1561
     55  C         -9.8630    4.3420   18.3760 C.2    47  LYS47       0.2260
     56  O        -10.0900    4.1440   17.1780 O.2    47  LYS47      -0.2867
     57  CB        -7.4220    3.7150   18.5120 C.3    47  LYS47       0.0271
     58  CG        -6.8840    5.2610   18.6370 C.3    47  LYS47       0.0035
     59  CD        -6.0940    5.8190   17.4110 C.3    47  LYS47       0.0206
     60  CE        -4.7410    5.2130   17.2910 C.3    47  LYS47       0.1093
     61  NZ        -3.6130    6.1280   16.8470 N.3    47  LYS47      -0.1314
     62  N         -3.0120    7.8380    8.6770 N.3    65  GLU65      -0.1245
     63  CA        -2.8820    6.6550    9.6120 C.3    65  GLU65       0.1567
     64  C         -3.7030    5.4900    9.1230 C.2    65  GLU65       0.2260
     65  O         -3.3470    4.3060    9.2640 O.2    65  GLU65      -0.2867
     66  CB        -3.3770    7.0620   11.0120 C.3    65  GLU65       0.0388
     67  CG        -3.4040    5.8530   12.0440 C.3    65  GLU65       0.1160
     68  CD        -3.6420    6.3590   13.4540 C.2    65  GLU65       0.3649
     69  OE1       -4.0990    7.5560   13.7830 O.co2  65  GLU65      -0.2457
     70  OE2       -3.3790    5.4430   14.3950 O.co2  65  GLU65      -0.2457
     71  N         -2.1120    1.9030    8.2870 N.3    69  LEU69      -0.1245
     72  CA        -2.4950    0.7110    9.0500 C.3    69  LEU69       0.1561
     73  C         -3.0820   -0.3480    8.0990 C.2    69  LEU69       0.2260
     74  O         -3.0080   -1.5390    8.3640 O.2    69  LEU69      -0.2867
     75  CB        -3.5840    1.1080   10.1280 C.3    69  LEU69       0.0270
     76  CG        -2.9430    1.8240   11.3480 C.3    69  LEU69       0.0019
     77  CD1       -4.0370    2.3620   12.2470 C.3    69  LEU69       0.0001
     78  CD2       -2.0100    0.9240   12.1820 C.3    69  LEU69       0.0001
     79  N          1.8880   -3.2890   14.1580 N.3    78  ILE78      -0.1245
     80  CA         0.4340   -3.1510   14.3290 C.3    78  ILE78       0.1561
     81  C         -0.2010   -2.8970   12.9820 C.2    78  ILE78       0.2260
     82  O          0.2400   -2.0450   12.2260 O.2    78  ILE78      -0.2867
     83  CB         0.1830   -1.9770   15.3030 C.3    78  ILE78       0.0252
     84  CG1        0.8500   -2.3080   16.6280 C.3    78  ILE78       0.0019
     85  CG2       -1.2740   -1.6600   15.4620 C.3    78  ILE78       0.0019
     86  CD1       -0.0190   -3.1920   17.5670 C.3    78  ILE78       0.0001
     87  N         -4.3670   -3.5290   10.8580 N.3    80  LEU80      -0.1245
     88  CA        -5.8030   -3.3270   11.0490 C.3    80  LEU80       0.1561
     89  C         -6.5700   -4.6130   11.1070 C.2    80  LEU80       0.2260
     90  O         -6.5020   -5.4400   10.1810 O.2    80  LEU80      -0.2867
     91  CB        -6.3650   -2.5040    9.9000 C.3    80  LEU80       0.0270
     92  CG        -6.6250   -1.0270   10.0680 C.3    80  LEU80       0.0019
     93  CD1       -7.5630   -0.4830    9.0320 C.3    80  LEU80       0.0001
     94  CD2       -6.9970   -0.6090   11.5030 C.3    80  LEU80       0.0001
     95  N        -10.5140    2.4610   14.8740 N.3    98  LEU98      -0.1245
     96  CA        -9.5490    1.5300   14.3150 C.3    98  LEU98       0.1561
     97  C         -9.3180    0.3640   15.2940 C.2    98  LEU98       0.2260
     98  O         -9.0600    0.6160   16.4770 O.2    98  LEU98      -0.2867
     99  CB        -8.2580    2.3260   14.0260 C.3    98  LEU98       0.0270
    100  CG        -8.4410    3.5780   13.1520 C.3    98  LEU98       0.0019
    101  CD1       -7.1730    4.3950   13.4960 C.3    98  LEU98       0.0001
    102  CD2       -8.3830    3.3010   11.8210 C.3    98  LEU98       0.0001
    103  N         -7.2930   -3.2100   16.3440 N.3   100  THR100     -0.1203
    104  CA        -6.0830   -4.0330   16.1600 C.3   100  THR100      0.1994
    105  C         -5.9330   -5.0180   17.3090 C.2   100  THR100      0.2618
    106  O         -6.7050   -5.0270   18.2040 O.2   100  THR100     -0.2717
    107  CB        -4.8340   -3.1500   15.9880 C.3   100  THR100      0.1784
    108  OG1       -3.7400   -3.9970   15.5360 O.3   100  THR100     -0.2211
    109  CG2       -4.3910   -2.5220   17.3170 C.3   100  THR100      0.0376
    110  N         -4.8520   -5.7910   17.3210 N.am  101  HIS101     -0.1961
    111  CA        -4.5950   -6.7260   18.4330 C.3   101  HIS101      0.1787
    112  C         -4.3880   -6.0650   19.7720 C.2   101  HIS101      0.2620
    113  O         -3.8290   -4.9750   19.8360 O.2   101  HIS101     -0.2715
    114  CB        -3.3470   -7.5830   18.0600 C.3   101  HIS101      0.0785
    115  CG        -3.5480   -8.4450   16.8420 C.ar  101  HIS101      0.0821
    116  ND1       -3.0730   -8.0910   15.5920 N.ar  101  HIS101     -0.2267
    117  CD2       -4.2170   -9.6100   16.6740 C.ar  101  HIS101      0.1154
    118  CE1       -3.3850   -9.0350   14.7190 C.ar  101  HIS101      0.1986
    119  NE2       -4.0990   -9.9610   15.3450 N.ar  101  HIS101     -0.2212
    120  N         -4.8580   -6.6380   20.8900 N.am  102  LEU102     -0.1963
    121  CA        -4.4750   -6.0210   22.1620 C.3   102  LEU102      0.1728
    122  C         -3.2850   -6.7840   22.7020 C.2   102  LEU102      0.2616
    123  O         -3.3570   -7.9730   22.8170 O.2   102  LEU102     -0.2715
    124  CB        -5.5880   -6.0710   23.2060 C.3   102  LEU102      0.0311
    125  CG        -5.2370   -5.5870   24.6090 C.3   102  LEU102      0.0022
    126  CD1       -5.2760   -4.1380   24.5880 C.3   102  LEU102      0.0001
    127  CD2       -6.3490   -6.1210   25.5380 C.3   102  LEU102      0.0001
    128  N         -2.1690   -6.0980   22.8630 N.am  103  MET103     -0.1963
    129  CA        -0.9840   -6.7070   23.4200 C.3   103  MET103      0.1736
    130  C         -0.9770   -6.5880   24.9340 C.2   103  MET103      0.2617
    131  O         -0.8090   -7.5940   25.6770 O.2   103  MET103     -0.2715
    132  CB         0.2680   -6.1200   22.7480 C.3   103  MET103      0.0427
    133  CG         0.1920   -6.2110   21.2240 C.3   103  MET103      0.0599
    134  SD         0.2790   -7.9070   20.6070 S.3   103  MET103     -0.1393
    135  CE         2.0670   -8.3920   20.9890 C.3   103  MET103      0.0692
    136  N         -1.1650   -5.3800   25.4370 N.am  104  GLY104     -0.1940
    137  CA        -1.5700   -5.1870   26.8170 C.3   104  GLY104      0.2014
    138  C         -0.4890   -4.5950   27.6850 C.2   104  GLY104      0.2639
    139  O         -0.7290   -4.3680   28.8370 O.2   104  GLY104     -0.2714
    140  N          0.7260   -4.3740   27.1650 N.am  105  ALA105     -0.1963
    141  CA         1.7530   -3.6850   27.9630 C.3   105  ALA105      0.1728
    142  C          2.6730   -2.9720   27.0080 C.2   105  ALA105      0.2616
    143  O          2.6670   -3.2600   25.8320 O.2   105  ALA105     -0.2715
    144  CB         2.6660   -4.6950   28.7070 C.3   105  ALA105      0.0334
    145  N          3.5040   -2.1060   27.5450 N.am  106  ASP106     -0.1971
    146  CA         4.6360   -1.5910   26.7860 C.3   106  ASP106      0.1709
    147  C          5.9750   -2.0590   27.3320 C.2   106  ASP106      0.2293
    148  O          6.0530   -2.8190   28.3170 O.2   106  ASP106     -0.2864
    149  CB         4.6080   -0.0770   26.5800 C.3   106  ASP106      0.1436
    150  CG         4.7960    0.6930   27.8520 C.2   106  ASP106      0.3671
    151  OD1        5.5700    0.2160   28.7440 O.co2 106  ASP106     -0.2456
    152  OD2        4.2020    1.7860   28.0300 O.co2 106  ASP106     -0.2456
    153  N          6.7700   -1.4810   30.8340 N.3   109  ASN109     -0.1240
    154  CA         6.0600   -2.4330   31.7050 C.3   109  ASN109      0.1653
    155  C          6.7170   -3.8080   31.8020 C.2   109  ASN109      0.2266
    156  O          6.5730   -4.5050   32.8140 O.2   109  ASN109     -0.2867
    157  CB         4.6010   -2.6230   31.2540 C.3   109  ASN109      0.1155
    158  CG         3.8510   -1.3140   31.0880 C.2   109  ASN109      0.2627
    159  OD1        4.2100   -0.2840   31.6770 O.2   109  ASN109     -0.2716
    160  ND2        2.8000   -1.3480   30.2880 N.am  109  ASN109     -0.0877
    161  N          7.6340    3.1700   24.8650 N.3   145  SER145     -0.1217
    162  CA         6.1860    3.2290   25.0370 C.3   145  SER145      0.1889
    163  C          5.3730    2.9500   23.8230 C.2   145  SER145      0.2288
    164  O          4.1650    2.7290   23.9130 O.2   145  SER145     -0.2866
    165  CB         5.7520    4.5630   25.6750 C.3   145  SER145      0.2089
    166  OG         5.9860    5.5520   24.6470 O.3   145  SER145     -0.2183
    167  N          6.2160    0.2650   21.8870 N.3   147  LEU147     -0.1231
    168  CA         6.4490   -1.1080   21.4910 C.3   147  LEU147      0.1693
    169  C          5.4650   -1.9070   22.3610 C.2   147  LEU147      0.2591
    170  O          5.5090   -1.8000   23.6220 O.2   147  LEU147     -0.2718
    171  CB         7.9010   -1.4850   21.7090 C.3   147  LEU147      0.0284
    172  CG         9.0070   -0.6720   21.0780 C.3   147  LEU147      0.0019
    173  CD1       10.2590   -1.1310   21.6480 C.3   147  LEU147      0.0001
    174  CD2        8.7760   -1.1240   19.6590 C.3   147  LEU147      0.0001
    175  N          4.5110   -2.5460   21.7280 N.am  148  ALA148     -0.1980
    176  CA         3.4200   -3.1980   22.4920 C.3   148  ALA148      0.1597
    177  C          3.8230   -4.6220   22.5850 C.2   148  ALA148      0.2287
    178  O          4.0780   -5.2690   21.5870 O.2   148  ALA148     -0.2864
    179  CB         2.1710   -3.0270   21.6920 C.3   148  ALA148      0.0319
    180  N          4.1690    0.0900   17.2120 N.3   158  LEU158     -0.1231
    181  CA         3.0490    0.9850   17.1190 C.3   158  LEU158      0.1693
    182  C          3.4720    2.4190   16.7280 C.2   158  LEU158      0.2592
    183  O          4.5860    2.8200   16.9650 O.2   158  LEU158     -0.2718
    184  CB         2.4580    0.9790   18.5710 C.3   158  LEU158      0.0284
    185  CG         1.4940    1.9790   19.0960 C.3   158  LEU158      0.0019
    186  CD1        0.1120    1.5140   18.6540 C.3   158  LEU158      0.0001
    187  CD2        1.5620    1.7740   20.6300 C.3   158  LEU158      0.0001
    188  N          2.5860    3.0980   16.0260 N.am  159  ASP159     -0.1974
    189  CA         2.5330    4.6110   15.8700 C.3   159  ASP159      0.1709
    190  C          3.6220    4.9910   14.9440 C.2   159  ASP159      0.2293
    191  O          4.0910    6.0720   14.9890 O.2   159  ASP159     -0.2864
    192  CB         2.7720    5.4120   17.1590 C.3   159  ASP159      0.1436
    193  CG         1.5880    5.4440   18.0960 C.2   159  ASP159      0.3671
    194  OD1        0.5160    4.9160   17.7250 O.co2 159  ASP159     -0.2456
    195  OD2        1.6920    5.8990   19.2510 O.co2 159  ASP159     -0.2456
@<TRIPOS>BOND
     1    73    74    2
     2    73    72    1
     3    71    72    1
     4    62    63    1
     5    93    92    1
     6    72    75    1
     7    64    65    2
     8    64    63    1
     9    63    66    1
    10    91    92    1
    11    91    88    1
    12    92    94    1
    13    75    76    1
    14    90    89    2
    15    87    88    1
    16    66    67    1
    17    88    89    1
    18    76    78    1
    19    76    77    1
    20   102   100    1
    21    67    68    1
    22    82    81    2
    23    81    80    1
    24   100   101    1
    25   100    99    1
    26    68    69   ar
    27    68    70   ar
    28    99    96    1
    29    79    80    1
    30    96    95    1
    31    96    97    1
    32    80    83    1
    33   118   119   ar
    34   118   116   ar
    35   190   191    2
    36   190   189    1
    37    97    98    2
    38    83    85    1
    39    83    84    1
    40   119   117   ar
    41   108   107    1
    42   116   115   ar
    43   189   188    1
    44   189   192    1
    45   107   104    1
    46   107   109    1
    47   188   182   am
    48   104   103    1
    49   104   105    1
    50    84    86    1
    51   117   115   ar
    52   182   183    2
    53   182   181    1
    54   115   114    1
    55    61    60    1
    56   181   180    1
    57   181   184    1
    58   192   193    1
    59    56    55    2
    60    60    59    1
    61   105   110   am
    62   105   106    2
    63   110   111    1
    64    59    58    1
    65   194   193   ar
    66   114   111    1
    67   193   195   ar
    68    55    54    1
    69   111   112    1
    70    57    58    1
    71    57    54    1
    72   184   185    1
    73   186   185    1
    74    53    54    1
    75    51    50    2
    76   185   187    1
    77   174   172    1
    78   112   113    2
    79   112   120   am
    80    50    49    1
    81   134   135    1
    82   134   133    1
    83    48    49    1
    84    23    24    2
    85    23    22    1
    86   120   121    1
    87   172   173    1
    88   172   171    1
    89    49    52    1
    90   133   132    1
    91    40    39    2
    92   168   171    1
    93   168   167    1
    94   168   169    1
    95   178   177    2
    96    22    21    1
    97   179   176    1
    98   175   169   am
    99   175   176    1
   100    39    38    1
   101    37    38    1
   102    31    29    1
   103   121   122    1
   104   121   124    1
   105   169   170    2
   106   176   177    1
   107    38    41    1
   108   122   123    2
   109   122   128   am
   110   132   129    1
   111    30    29    1
   112   128   129    1
   113   124   125    1
   114    29    26    1
   115    26    25    1
   116    26    27    1
   117   129   130    1
   118   163   164    2
   119   163   162    1
   120    41    42    1
   121    27    28    2
   122   126   125    1
   123   125   127    1
   124   166   165    1
   125   161   162    1
   126   130   136   am
   127   130   131    2
   128    42    43    1
   129   162   165    1
   130    34    33    1
   131    34    35    2
   132    33    32    1
   133    33    36    1
   134   136   137    1
   135    43    44    1
   136   143   142    2
   137    20    18    1
   138   149   146    1
   139   149   150    1
   140   146   147    1
   141   146   145    1
   142    44    45    2
   143   137   138    1
   144    46    45    1
   145   142   145   am
   146   142   141    1
   147   140   138   am
   148   140   141    1
   149    45    47    1
   150   147   148    2
   151   138   139    2
   152    18    19    1
   153    18    15    1
   154     1     2    1
   155     4     3    2
   156    17    16    2
   157   150   152   ar
   158   150   151   ar
   159   141   144    1
   160    16    15    1
   161    14    15    1
   162    14     9   am
   163     3     2    1
   164     3     7   am
   165     8     9    1
   166     8     7    1
   167     8    11    1
   168     2     5    1
   169     9    10    2
   170     7    13    1
   171    11    12    1
   172     5     6    1
   173    13    12    1
   174   160   158   am
   175   153   154    1
   176   158   157    1
   177   158   159    2
   178   157   154    1
   179   154   155    1
   180   155   156    2
