@<TRIPOS>MOLECULE
tmp/2qdgB00.pdb
 152 141 0 0 0
SMALL
GASTEIGER

@<TRIPOS>ATOM
      1  N        -38.7060    8.0450   94.6510 N.3    41  ALA41      -0.1245
      2  CA       -38.7290    7.8150   93.2190 C.3    41  ALA41       0.1562
      3  C        -37.4740    8.4000   92.5970 C.2    41  ALA41       0.2260
      4  O        -37.3940    9.6030   92.3550 O.2    41  ALA41      -0.2867
      5  CB       -39.9700    8.4540   92.6020 C.3    41  ALA41       0.0290
      6  N        -36.1080    7.3260   89.5830 N.3    43  ASP43      -0.1225
      7  CA       -36.1230    6.6710   88.2800 C.3    43  ASP43       0.1805
      8  C        -36.2010    7.6310   87.0980 C.2    43  ASP43       0.2598
      9  O        -36.6210    7.2390   86.0100 O.2    43  ASP43      -0.2718
     10  CB       -37.3070    5.7060   88.2100 C.3    43  ASP43       0.1424
     11  CG       -38.6480    6.4200   88.2970 C.2    43  ASP43       0.3668
     12  OD1      -38.8830    7.1390   89.2940 O.co2  43  ASP43      -0.2456
     13  OD2      -39.4650    6.2600   87.3670 O.co2  43  ASP43      -0.2456
     14  N        -35.8060    8.8820   87.3020 N.am   44  GLU44      -0.1965
     15  CA       -35.8410    9.8620   86.2200 C.3    44  GLU44       0.1733
     16  C        -35.0010    9.3300   85.0630 C.2    44  GLU44       0.2617
     17  O        -33.9560    8.7170   85.2790 O.2    44  GLU44      -0.2715
     18  CB       -35.2750   11.2060   86.6900 C.3    44  GLU44       0.0429
     19  CG       -35.7620   11.6390   88.0620 C.3    44  GLU44       0.1163
     20  CD       -34.9220   11.0690   89.1980 C.2    44  GLU44       0.3649
     21  OE1      -34.5430    9.8780   89.1340 O.co2  44  GLU44      -0.2457
     22  OE2      -34.6480   11.8140   90.1640 O.co2  44  GLU44      -0.2457
     23  N        -35.4620    9.5480   83.8370 N.am   45  SER45      -0.1950
     24  CA       -34.7250    9.0820   82.6710 C.3    45  SER45       0.1924
     25  C        -33.4230    9.8620   82.5730 C.2    45  SER45       0.2314
     26  O        -33.3150   10.9620   83.1150 O.2    45  SER45      -0.2863
     27  CB       -35.5460    9.3000   81.4020 C.3    45  SER45       0.2116
     28  OG       -35.7900   10.6800   81.1900 O.3    45  SER45      -0.2180
     29  N        -33.8590   13.0910   81.6410 N.3    48  SER48      -0.1217
     30  CA       -34.5130   13.9010   82.6640 C.3    48  SER48       0.1889
     31  C        -33.5110   14.3620   83.7170 C.2    48  SER48       0.2288
     32  O        -33.8360   15.1760   84.5830 O.2    48  SER48      -0.2866
     33  CB       -35.6480   13.1130   83.3290 C.3    48  SER48       0.2089
     34  OG       -36.7150   12.8870   82.4210 O.3    48  SER48      -0.2183
     35  N        -32.6740   18.6360   84.8830 N.3    52  ARG52      -0.1245
     36  CA       -32.7700   18.8040   86.3290 C.3    52  ARG52       0.1563
     37  C        -31.4140   19.1910   86.9160 C.2    52  ARG52       0.2260
     38  O        -31.3190   19.6200   88.0680 O.2    52  ARG52      -0.2867
     39  CB       -33.2700   17.5080   86.9760 C.3    52  ARG52       0.0307
     40  CG       -33.5910   17.6350   88.4580 C.3    52  ARG52       0.0489
     41  CD       -34.1070   16.3250   89.0380 C.3    52  ARG52       0.2205
     42  NE       -35.2780   15.8290   88.3190 N.pl3  52  ARG52      -0.0865
     43  CZ       -36.0340   14.8150   88.7320 C.cat  52  ARG52       0.5346
     44  NH1      -35.7450   14.1860   89.8640 N.pl3  52  ARG52       0.1354
     45  NH2      -37.0770   14.4290   88.0100 N.pl3  52  ARG52       0.1354
     46  N        -37.8290    3.4790   93.6000 N.3    86  ILE86      -0.1245
     47  CA       -38.0750    3.1280   92.2200 C.3    86  ILE86       0.1561
     48  C        -36.7830    3.5060   91.5180 C.2    86  ILE86       0.2260
     49  O        -36.4610    4.6870   91.3920 O.2    86  ILE86      -0.2867
     50  CB       -39.2360    3.9330   91.6060 C.3    86  ILE86       0.0252
     51  CG1      -40.4920    3.7920   92.4640 C.3    86  ILE86       0.0019
     52  CG2      -39.5320    3.4140   90.2030 C.3    86  ILE86       0.0019
     53  CD1      -41.7200    4.4130   91.8330 C.3    86  ILE86       0.0001
     54  N        -38.3140    1.0260   87.1950 N.3   116  LYS116     -0.1245
     55  CA       -39.2230    1.6030   86.2110 C.3   116  LYS116      0.1561
     56  C        -39.1230    0.7280   84.9690 C.2   116  LYS116      0.2260
     57  O        -38.1030    0.7410   84.2830 O.2   116  LYS116     -0.2867
     58  CB       -38.8100    3.0280   85.8550 C.3   116  LYS116      0.0271
     59  CG       -39.5360    3.5530   84.6300 C.3   116  LYS116      0.0035
     60  CD       -39.2330    5.0120   84.3510 C.3   116  LYS116      0.0206
     61  CE       -37.9040    5.1850   83.6650 C.3   116  LYS116      0.1093
     62  NZ       -37.7200    6.5960   83.2370 N.3   116  LYS116     -0.1314
     63  N        -42.5390   -0.1030   88.2550 N.3   156  LYS156     -0.1245
     64  CA       -43.4810    0.9660   87.9700 C.3   156  LYS156      0.1561
     65  C        -43.5710    1.2320   86.4830 C.2   156  LYS156      0.2260
     66  O        -42.5700    1.1730   85.7620 O.2   156  LYS156     -0.2867
     67  CB       -43.0680    2.2530   88.6830 C.3   156  LYS156      0.0271
     68  CG       -44.0950    3.3590   88.5830 C.3   156  LYS156      0.0035
     69  CD       -43.4520    4.7230   88.4190 C.3   156  LYS156      0.0206
     70  CE       -42.7760    4.8580   87.0680 C.3   156  LYS156      0.1093
     71  NZ       -42.2860    6.2470   86.8500 N.3   156  LYS156     -0.1314
     72  N        -45.8200    3.9750   83.8450 N.3   158  ARG158     -0.1245
     73  CA       -46.6870    5.1340   83.8510 C.3   158  ARG158      0.1563
     74  C        -47.2520    5.5770   82.5120 C.2   158  ARG158      0.2260
     75  O        -46.5260    5.7450   81.5370 O.2   158  ARG158     -0.2867
     76  CB       -45.9540    6.2920   84.5260 C.3   158  ARG158      0.0307
     77  CG       -46.3950    7.6740   84.1190 C.3   158  ARG158      0.0489
     78  CD       -45.4140    8.2340   83.1240 C.3   158  ARG158      0.2205
     79  NE       -45.1650    9.6500   83.3560 N.pl3 158  ARG158     -0.0865
     80  CZ       -44.2660   10.3610   82.6890 C.cat 158  ARG158      0.5346
     81  NH1      -43.5280    9.7860   81.7490 N.pl3 158  ARG158      0.1354
     82  NH2      -44.1090   11.6470   82.9610 N.pl3 158  ARG158      0.1354
     83  N        -49.4910    3.4460   87.3240 N.3   197  GLU197     -0.1245
     84  CA       -49.5270    4.9020   87.3150 C.3   197  GLU197      0.1567
     85  C        -50.3830    5.5330   86.2300 C.2   197  GLU197      0.2260
     86  O        -49.9040    5.8220   85.1320 O.2   197  GLU197     -0.2867
     87  CB       -48.1130    5.4770   87.2110 C.3   197  GLU197      0.0388
     88  CG       -48.0510    6.9450   87.6000 C.3   197  GLU197      0.1160
     89  CD       -46.6650    7.5360   87.4630 C.2   197  GLU197      0.3649
     90  OE1      -45.6960    6.8770   87.8990 O.co2 197  GLU197     -0.2457
     91  OE2      -46.5450    8.6610   86.9300 O.co2 197  GLU197     -0.2457
     92  N        -50.2960    4.5210   91.7560 N.3   239  LYS239     -0.1245
     93  CA       -49.5600    5.7690   91.8980 C.3   239  LYS239      0.1561
     94  C        -50.3040    6.7720   91.0410 C.2   239  LYS239      0.2260
     95  O        -49.9590    7.0020   89.8870 O.2   239  LYS239     -0.2867
     96  CB       -48.1170    5.6190   91.4050 C.3   239  LYS239      0.0271
     97  CG       -47.2700    6.8740   91.5850 C.3   239  LYS239      0.0035
     98  CD       -45.8960    6.7120   90.9640 C.3   239  LYS239      0.0206
     99  CE       -45.0970    7.9980   91.0440 C.3   239  LYS239      0.1093
    100  NZ       -43.8530    7.9190   90.2720 N.3   239  LYS239     -0.1314
    101  N        -48.0020   10.9390   93.5540 N.3   280  LEU280     -0.1231
    102  CA       -46.9170   11.5260   92.7860 C.3   280  LEU280      0.1693
    103  C        -46.9740   13.0380   93.0180 C.2   280  LEU280      0.2593
    104  O        -48.0470   13.5730   93.2830 O.2   280  LEU280     -0.2718
    105  CB       -47.1170   11.2100   91.3030 C.3   280  LEU280      0.0284
    106  CG       -48.3990   11.7420   90.6530 C.3   280  LEU280      0.0019
    107  CD1      -48.1210   13.0760   89.9810 C.3   280  LEU280      0.0001
    108  CD2      -48.9050   10.7520   89.6280 C.3   280  LEU280      0.0001
    109  N        -45.8350   13.7260   92.9280 N.am  281  SER281     -0.1938
    110  CA       -45.8180   15.1760   93.1320 C.3   281  SER281      0.2055
    111  C        -46.3540   15.9030   91.8950 C.2   281  SER281      0.2643
    112  O        -47.1120   16.8700   92.0050 O.2   281  SER281     -0.2714
    113  CB       -44.3990   15.6580   93.4740 C.3   281  SER281      0.2130
    114  OG       -43.4600   15.3290   92.4680 O.3   281  SER281     -0.2179
    115  N        -45.9510   15.4320   90.7180 N.am  282  GLY282     -0.1954
    116  CA       -46.4250   16.0080   89.4730 C.3   282  GLY282      0.1869
    117  C        -46.0130   17.4250   89.1350 C.2   282  GLY282      0.2309
    118  O        -45.7920   17.7420   87.9630 O.2   282  GLY282     -0.2863
    119  N        -44.9890    8.4880   96.7440 N.3   310  SER310     -0.1202
    120  CA       -44.0140    7.9160   95.8290 C.3   310  SER310      0.2020
    121  C        -43.5160    9.1400   95.0940 C.2   310  SER310      0.2619
    122  O        -43.7980    9.3330   93.9130 O.2   310  SER310     -0.2717
    123  CB       -44.6790    6.9530   94.8470 C.3   310  SER310      0.2103
    124  OG       -43.7460    6.4850   93.8900 O.3   310  SER310     -0.2182
    125  N        -42.7860    9.9810   95.8140 N.am  311  TYR311     -0.1961
    126  CA       -42.2740   11.2180   95.2470 C.3   311  TYR311      0.1771
    127  C        -40.8630   11.1340   94.6990 C.2   311  TYR311      0.2619
    128  O        -40.1000   10.2210   95.0050 O.2   311  TYR311     -0.2715
    129  CB       -42.2940   12.3350   96.2930 C.3   311  TYR311      0.0574
    130  CG       -43.6580   12.7200   96.8060 C.ar  311  TYR311     -0.0198
    131  CD1      -44.6830   13.0780   95.9320 C.ar  311  TYR311     -0.0009
    132  CD2      -43.9100   12.7800   98.1740 C.ar  311  TYR311     -0.0009
    133  CE1      -45.9260   13.4920   96.4140 C.ar  311  TYR311      0.0417
    134  CE2      -45.1370   13.1900   98.6610 C.ar  311  TYR311      0.0417
    135  CZ       -46.1390   13.5450   97.7800 C.ar  311  TYR311      0.1957
    136  OH       -47.3470   13.9610   98.2690 O.3   311  TYR311     -0.2866
    137  N        -40.5440   12.1280   93.8820 N.am  312  ALA312     -0.1963
    138  CA       -39.2310   12.2830   93.2880 C.3   312  ALA312      0.1728
    139  C        -38.8380   13.7340   93.5150 C.2   312  ALA312      0.2616
    140  O        -38.0760   14.0500   94.4310 O.2   312  ALA312     -0.2715
    141  CB       -39.2760   11.9940   91.7980 C.3   312  ALA312      0.0334
    142  N        -39.3730   14.6130   92.6720 N.am  313  ARG313     -0.1977
    143  CA       -39.0860   16.0370   92.7470 C.3   313  ARG313      0.1597
    144  C        -39.3660   16.6180   94.1230 C.2   313  ARG313      0.2287
    145  O        -38.4800   17.2080   94.7400 O.2   313  ARG313     -0.2864
    146  CB       -39.8800   16.7880   91.6730 C.3   313  ARG313      0.0334
    147  CG       -39.3730   16.5030   90.2590 C.3   313  ARG313      0.0492
    148  CD       -40.2440   17.1210   89.1770 C.3   313  ARG313      0.2205
    149  NE       -41.4760   16.3680   88.9580 N.pl3 313  ARG313     -0.0865
    150  CZ       -42.4040   16.7050   88.0680 C.cat 313  ARG313      0.5346
    151  NH1      -42.2400   17.7860   87.3140 N.pl3 313  ARG313      0.1354
    152  NH2      -43.4940   15.9610   87.9300 N.pl3 313  ARG313      0.1354
@<TRIPOS>BOND
     1    28    27    1
     2    27    24    1
     3    75    74    2
     4    29    30    1
     5    81    80    1
     6    34    33    1
     7    74    73    1
     8    25    24    1
     9    25    26    2
    10    30    33    1
    11    30    31    1
    12    24    23    1
    13    80    82    1
    14    80    79    2
    15    78    79    1
    16    78    77    1
    17    62    61    1
    18    61    60    1
    19    31    32    2
    20    23    16   am
    21    72    73    1
    22    73    76    1
    23    77    76    1
    24    57    56    2
    25    60    59    1
    26    59    58    1
    27    35    36    1
    28    56    55    1
    29    16    17    2
    30    16    15    1
    31    86    85    2
    32    66    65    2
    33    58    55    1
    34     9     8    2
    35    55    54    1
    36    15    18    1
    37    15    14    1
    38    85    84    1
    39    36    37    1
    40    36    39    1
    41    65    64    1
    42    18    19    1
    43    71    70    1
    44    37    38    2
    45    91    89   ar
    46    39    40    1
    47    70    69    1
    48     8    14   am
    49     8     7    1
    50    87    84    1
    51    87    88    1
    52   151   150    1
    53    84    83    1
    54    13    11   ar
    55    89    88    1
    56    89    90   ar
    57   152   150    1
    58   118   117    2
    59    64    63    1
    60    64    67    1
    61    45    43    1
    62    19    20    1
    63   150   149    2
    64    10     7    1
    65    10    11    1
    66     7     6    1
    67    11    12   ar
    68    42    43    2
    69    42    41    1
    70    69    68    1
    71    40    41    1
    72    68    67    1
    73    43    44    1
    74   149   148    1
    75    21    20   ar
    76   117   116    1
    77   148   147    1
    78    20    22   ar
    79   116   115    1
    80   108   106    1
    81    95    94    2
    82   107   106    1
    83    52    50    1
    84   147   146    1
    85   100    99    1
    86   106   105    1
    87   115   111   am
    88    98    99    1
    89    98    97    1
    90    94    93    1
    91   105   102    1
    92    49    48    2
    93    96    97    1
    94    96    93    1
    95    48    47    1
    96    50    47    1
    97    50    51    1
    98   146   143    1
    99    92    93    1
   100   141   138    1
   101    53    51    1
   102   111   112    2
   103   111   110    1
   104    47    46    1
   105     4     3    2
   106   114   113    1
   107     3     2    1
   108     5     2    1
   109   142   143    1
   110   142   139   am
   111   143   144    1
   112   102   103    1
   113   102   101    1
   114   109   103   am
   115   109   110    1
   116   103   104    2
   117   110   113    1
   118     2     1    1
   119   138   139    1
   120   138   137    1
   121   139   140    2
   122   137   127   am
   123   124   123    1
   124   122   121    2
   125   144   145    2
   126   127   128    2
   127   127   126    1
   128   123   120    1
   129   121   125   am
   130   121   120    1
   131   126   125    1
   132   126   129    1
   133   120   119    1
   134   131   133   ar
   135   131   130   ar
   136   129   130    1
   137   133   135   ar
   138   130   132   ar
   139   135   136    1
   140   135   134   ar
   141   132   134   ar
