@<TRIPOS>MOLECULE
tmp/2qdiA00.pdb
 138 135 0 0 0
SMALL
GASTEIGER

@<TRIPOS>ATOM
      1  N         17.8340   36.2040   -7.6640 N.3     6  PHE6       -0.1241
      2  CA        17.6230   34.8580   -7.1480 C.3     6  PHE6        0.1605
      3  C         16.1550   34.4680   -7.1530 C.2     6  PHE6        0.2264
      4  O         15.7810   33.4490   -7.7170 O.2     6  PHE6       -0.2867
      5  CB        18.1740   34.7210   -5.7120 C.3     6  PHE6        0.0534
      6  CG        17.8900   33.3740   -5.0910 C.ar    6  PHE6       -0.0203
      7  CD1       18.5390   32.2320   -5.5490 C.ar    6  PHE6       -0.0042
      8  CD2       16.9500   33.2440   -4.0780 C.ar    6  PHE6       -0.0042
      9  CE1       18.2740   30.9780   -4.9930 C.ar    6  PHE6       -0.0003
     10  CE2       16.6740   31.9920   -3.5210 C.ar    6  PHE6       -0.0003
     11  CZ        17.3440   30.8630   -3.9820 C.ar    6  PHE6       -0.0000
     12  N         14.0730   31.4180   -9.5170 N.3    10  LEU10      -0.1245
     13  CA        13.2970   30.2560   -9.0920 C.3    10  LEU10       0.1561
     14  C         12.2310   29.8980  -10.1270 C.2    10  LEU10       0.2260
     15  O         12.1280   28.7450  -10.5360 O.2    10  LEU10      -0.2867
     16  CB        12.7020   30.4850   -7.7000 C.3    10  LEU10       0.0270
     17  CG        13.7360   30.7170   -6.5860 C.3    10  LEU10       0.0019
     18  CD1       13.0420   30.9090   -5.2160 C.3    10  LEU10       0.0001
     19  CD2       14.7610   29.5690   -6.5230 C.3    10  LEU10       0.0001
     20  N         13.8580   28.7050  -13.4610 N.3    13  ILE13      -0.1245
     21  CA        14.3450   27.3380  -13.3170 C.3    13  ILE13       0.1561
     22  C         13.1790   26.3440  -13.3830 C.2    13  ILE13       0.2260
     23  O         13.2310   25.3800  -14.1450 O.2    13  ILE13      -0.2867
     24  CB        15.1760   27.1350  -12.0270 C.3    13  ILE13       0.0252
     25  CG1       16.4650   27.9830  -12.0710 C.3    13  ILE13       0.0019
     26  CG2       15.4900   25.6400  -11.8370 C.3    13  ILE13       0.0019
     27  CD1       17.1020   28.2240  -10.7080 C.3    13  ILE13       0.0001
     28  N         15.8160   19.8470  -11.7270 N.3    51  VAL51      -0.1245
     29  CA        16.2640   21.1530  -11.1990 C.3    51  VAL51       0.1561
     30  C         17.7610   21.0730  -10.8860 C.2    51  VAL51       0.2260
     31  O         18.5440   21.9150  -11.3340 O.2    51  VAL51      -0.2867
     32  CB        15.4240   21.5840   -9.9590 C.3    51  VAL51       0.0252
     33  CG1       16.0590   22.7730   -9.2060 C.3    51  VAL51       0.0019
     34  CG2       13.9950   21.9280  -10.3810 C.3    51  VAL51       0.0019
     35  N         19.9050   20.9610  -13.9170 N.3    54  MET54      -0.1230
     36  CA        20.0060   22.3440  -14.3820 C.3    54  MET54       0.1702
     37  C         21.0850   23.1080  -13.5900 C.2    54  MET54       0.2592
     38  O         21.8620   23.8690  -14.1680 O.2    54  MET54      -0.2718
     39  CB        18.6350   23.0290  -14.2800 C.3    54  MET54       0.0401
     40  CG        18.4600   24.2900  -15.1220 C.3    54  MET54       0.0596
     41  SD        16.7350   24.8360  -15.2960 S.3    54  MET54      -0.1393
     42  CE        15.9920   23.4240  -16.0900 C.3    54  MET54       0.0692
     43  N         21.1430   22.8800  -12.2770 N.am   55  ALA55      -0.1980
     44  CA        22.1500   23.5030  -11.4040 C.3    55  ALA55       0.1597
     45  C         23.5590   22.9310  -11.5870 C.2    55  ALA55       0.2287
     46  O         24.5440   23.5530  -11.1680 O.2    55  ALA55      -0.2864
     47  CB        21.7310   23.3930   -9.9420 C.3    55  ALA55       0.0319
     48  N         24.5720   20.1610  -10.1170 N.3    57  THR57      -0.1218
     49  CA        24.9860   19.6720   -8.8050 C.3    57  THR57       0.1862
     50  C         24.9290   18.1450   -8.7200 C.2    57  THR57       0.2287
     51  O         25.4620   17.5470   -7.7860 O.2    57  THR57      -0.2866
     52  CB        24.1150   20.2730   -7.6980 C.3    57  THR57       0.1770
     53  OG1       22.7370   20.0060   -7.9860 O.3    57  THR57      -0.2211
     54  CG2       24.3320   21.7840   -7.6090 C.3    57  THR57       0.0375
     55  N         28.1410   27.3290   -6.3350 N.3    73  LEU73      -0.1245
     56  CA        27.2930   28.1490   -5.4480 C.3    73  LEU73       0.1561
     57  C         27.2170   29.6560   -5.7650 C.2    73  LEU73       0.2260
     58  O         26.1110   30.1990   -5.8440 O.2    73  LEU73      -0.2867
     59  CB        27.6210   27.9130   -3.9660 C.3    73  LEU73       0.0270
     60  CG        26.9910   26.6680   -3.3320 C.3    73  LEU73       0.0019
     61  CD1       27.5280   26.4740   -1.9250 C.3    73  LEU73       0.0001
     62  CD2       25.4590   26.7290   -3.3250 C.3    73  LEU73       0.0001
     63  N         27.2530   31.0800   -8.4060 N.3    75  HIS75      -0.1226
     64  CA        26.4000   31.2730   -9.5810 C.3    75  HIS75       0.1752
     65  C         24.9600   30.8140   -9.3250 C.2    75  HIS75       0.2596
     66  O         24.0680   31.0570  -10.1430 O.2    75  HIS75      -0.2718
     67  CB        26.9800   30.5580  -10.8130 C.3    75  HIS75       0.0759
     68  CG        28.4270   30.8560  -11.0630 C.ar   75  HIS75       0.0818
     69  ND1       29.3370   29.8790  -11.4070 N.ar   75  HIS75      -0.2268
     70  CD2       29.1260   32.0150  -10.9990 C.ar   75  HIS75       0.1154
     71  CE1       30.5310   30.4250  -11.5540 C.ar   75  HIS75       0.1986
     72  NE2       30.4310   31.7200  -11.3110 N.ar   75  HIS75      -0.2212
     73  N         24.7450   30.1610   -8.1850 N.am   76  LEU76      -0.1966
     74  CA        23.4510   29.5910   -7.8440 C.3    76  LEU76       0.1728
     75  C         22.6370   30.4390   -6.8660 C.2    76  LEU76       0.2616
     76  O         21.4550   30.6890   -7.1090 O.2    76  LEU76      -0.2715
     77  CB        23.6100   28.1550   -7.3230 C.3    76  LEU76       0.0311
     78  CG        24.1540   27.1390   -8.3350 C.3    76  LEU76       0.0022
     79  CD1       24.2970   25.7540   -7.7120 C.3    76  LEU76       0.0001
     80  CD2       23.2700   27.0790   -9.5830 C.3    76  LEU76       0.0001
     81  N         23.2650   30.8680   -5.7680 N.am   77  VAL77      -0.1977
     82  CA        22.5760   31.6210   -4.7080 C.3    77  VAL77       0.1596
     83  C         23.1840   33.0240   -4.4920 C.2    77  VAL77       0.2287
     84  O         24.3250   33.2750   -4.9030 O.2    77  VAL77      -0.2864
     85  CB        22.5650   30.8370   -3.3650 C.3    77  VAL77       0.0276
     86  CG1       21.8170   29.5080   -3.5090 C.3    77  VAL77       0.0022
     87  CG2       23.9910   30.6080   -2.8540 C.3    77  VAL77       0.0022
     88  N         18.8250   19.3480    2.5140 N.3   113  PHE113     -0.1241
     89  CA        19.1140   20.7830    2.4210 C.3   113  PHE113      0.1605
     90  C         18.0880   21.6300    3.1700 C.2   113  PHE113      0.2264
     91  O         18.4570   22.5580    3.8970 O.2   113  PHE113     -0.2867
     92  CB        19.1740   21.2280    0.9600 C.3   113  PHE113      0.0534
     93  CG        20.5440   21.1540    0.3580 C.ar  113  PHE113     -0.0203
     94  CD1       21.2150   22.3160   -0.0120 C.ar  113  PHE113     -0.0042
     95  CD2       21.1690   19.9300    0.1680 C.ar  113  PHE113     -0.0042
     96  CE1       22.4870   22.2580   -0.5700 C.ar  113  PHE113     -0.0003
     97  CE2       22.4350   19.8600   -0.3850 C.ar  113  PHE113     -0.0003
     98  CZ        23.0950   21.0240   -0.7570 C.ar  113  PHE113     -0.0000
     99  N         15.4230   28.6080    3.1680 N.3   121  PHE121     -0.1227
    100  CA        15.5200   27.6330    2.0700 C.3   121  PHE121      0.1736
    101  C         14.3780   27.6740    1.0650 C.2   121  PHE121      0.2595
    102  O         13.1970   27.6080    1.4280 O.2   121  PHE121     -0.2718
    103  CB        15.7000   26.2040    2.5830 C.3   121  PHE121      0.0547
    104  CG        15.9620   25.2120    1.4920 C.ar  121  PHE121     -0.0202
    105  CD1       14.9420   24.4030    1.0110 C.ar  121  PHE121     -0.0042
    106  CD2       17.2260   25.1130    0.9180 C.ar  121  PHE121     -0.0042
    107  CE1       15.1800   23.4830   -0.0190 C.ar  121  PHE121     -0.0003
    108  CE2       17.4760   24.2000   -0.1100 C.ar  121  PHE121     -0.0003
    109  CZ        16.4470   23.3830   -0.5730 C.ar  121  PHE121     -0.0000
    110  N         14.7520   27.7300   -0.2120 N.am  122  MET122     -0.1965
    111  CA        13.7850   27.8330   -1.2900 C.3   122  MET122      0.1736
    112  C         14.1690   26.9290   -2.4490 C.2   122  MET122      0.2616
    113  O         15.3310   26.8710   -2.8480 O.2   122  MET122     -0.2715
    114  CB        13.6500   29.2910   -1.7540 C.3   122  MET122      0.0427
    115  CG        13.3370   30.2630   -0.6240 C.3   122  MET122      0.0599
    116  SD        13.1530   31.9790   -1.1360 S.3   122  MET122     -0.1393
    117  CE        13.7070   32.7980    0.3530 C.3   122  MET122      0.0692
    118  N         13.1860   26.2050   -2.9650 N.am  123  TRP123     -0.1960
    119  CA        13.4000   25.3310   -4.1060 C.3   123  TRP123      0.1756
    120  C         12.6760   25.9100   -5.3040 C.2   123  TRP123      0.2461
    121  O         11.5370   26.3550   -5.1650 O.2   123  TRP123     -0.2730
    122  CB        12.8850   23.9170   -3.8220 C.3   123  TRP123      0.0590
    123  CG        13.4070   22.9340   -4.8260 C.ar  123  TRP123      0.0006
    124  CD1       12.7530   22.4560   -5.9270 C.ar  123  TRP123      0.0946
    125  CD2       14.7200   22.3620   -4.8540 C.ar  123  TRP123      0.0152
    126  NE1       13.5770   21.6010   -6.6310 N.ar  123  TRP123     -0.2442
    127  CE2       14.7860   21.5200   -5.9900 C.ar  123  TRP123      0.0810
    128  CE3       15.8440   22.4630   -4.0160 C.ar  123  TRP123      0.0012
    129  CZ2       15.9250   20.7840   -6.3120 C.ar  123  TRP123      0.0191
    130  CZ3       16.9840   21.7370   -4.3410 C.ar  123  TRP123      0.0001
    131  CH2       17.0150   20.9070   -5.4910 C.ar  123  TRP123      0.0015
    132  N         13.3280   25.9150   -6.4850 N.am  124  PRO124     -0.2727
    133  CA        12.6380   26.4010   -7.6840 C.3   124  PRO124      0.1402
    134  C         11.3040   25.6800   -7.8850 C.2   124  PRO124      0.2269
    135  O         10.2650   26.3260   -8.0720 O.2   124  PRO124     -0.2865
    136  CB        13.6210   26.0630   -8.8110 C.3   124  PRO124      0.0296
    137  CG        14.9800   26.0850   -8.1400 C.3   124  PRO124      0.0237
    138  CD        14.7090   25.4840   -6.7840 C.3   124  PRO124      0.0939
@<TRIPOS>BOND
     1    42    41    1
     2    41    40    1
     3    40    39    1
     4    36    39    1
     5    36    35    1
     6    36    37    1
     7    38    37    2
     8    23    22    2
     9    37    43   am
    10    20    21    1
    11    22    21    1
    12    21    24    1
    13    43    44    1
    14    25    24    1
    15    25    27    1
    16    24    26    1
    17    28    29    1
    18    45    44    1
    19    45    46    2
    20    71    69   ar
    21    71    72   ar
    22    69    68   ar
    23    44    47    1
    24    31    30    2
    25    72    70   ar
    26    29    30    1
    27    29    32    1
    28    68    70   ar
    29    68    67    1
    30    67    64    1
    31    15    14    2
    32    34    32    1
    33    66    65    2
    34    14    13    1
    35    48    49    1
    36    32    33    1
    37    80    78    1
    38    64    65    1
    39    64    63    1
    40    12    13    1
    41    65    73   am
    42    13    16    1
    43   136   137    1
    44   136   133    1
    45    49    50    1
    46    49    52    1
    47    50    51    2
    48    78    79    1
    49    78    77    1
    50    73    74    1
    51   137   138    1
    52   135   134    2
    53    53    52    1
    54   134   133    1
    55    74    77    1
    56    74    75    1
    57     4     3    2
    58    16    17    1
    59    52    54    1
    60   133   132    1
    61     1     2    1
    62     3     2    1
    63     2     5    1
    64    76    75    2
    65    75    81   am
    66   138   132    1
    67   126   127   ar
    68   126   124   ar
    69    17    19    1
    70    17    18    1
    71   132   120   am
    72    55    56    1
    73   129   127   ar
    74   129   131   ar
    75   127   125   ar
    76   124   123   ar
    77    58    57    2
    78    81    82    1
    79    57    56    1
    80     5     6    1
    81     7     6   ar
    82     7     9   ar
    83   131   130   ar
    84    56    59    1
    85   120   121    2
    86   120   119    1
    87     6     8   ar
    88     9    11   ar
    89    84    83    2
    90   125   123   ar
    91   125   128   ar
    92   123   122    1
    93    82    83    1
    94    82    85    1
    95   130   128   ar
    96   119   122    1
    97   119   118    1
    98     8    10   ar
    99    11    10   ar
   100    59    60    1
   101    86    85    1
   102    85    87    1
   103    60    62    1
   104    60    61    1
   105   118   112   am
   106   113   112    2
   107   112   111    1
   108   114   111    1
   109   114   115    1
   110   111   110    1
   111   116   115    1
   112   116   117    1
   113    98    96   ar
   114    98    97   ar
   115   109   108   ar
   116   109   107   ar
   117    96    94   ar
   118    97    95   ar
   119   110   101   am
   120   108   106   ar
   121   107   105   ar
   122    94    93   ar
   123    95    93   ar
   124    93    92    1
   125   106   104   ar
   126    92    89    1
   127   105   104   ar
   128   101   102    2
   129   101   100    1
   130   104   103    1
   131   100   103    1
   132   100    99    1
   133    89    88    1
   134    89    90    1
   135    90    91    2
