@<TRIPOS>MOLECULE
tmp/2qdsA00.pdb
 127 122 0 0 0
SMALL
GASTEIGER

@<TRIPOS>ATOM
      1  N         14.1230   46.9460   61.8490 N.3    21  VAL21      -0.1245
      2  CA        15.4790   46.4520   61.9040 C.3    21  VAL21       0.1561
      3  C         15.3690   44.9430   61.9770 C.2    21  VAL21       0.2260
      4  O         14.6700   44.4260   62.8360 O.2    21  VAL21      -0.2867
      5  CB        16.1900   47.0240   63.1230 C.3    21  VAL21       0.0252
      6  CG1       17.5310   46.3620   63.3290 C.3    21  VAL21       0.0019
      7  CG2       16.3410   48.5480   62.9370 C.3    21  VAL21       0.0019
      8  N          8.0880   41.7280   65.8700 N.3    41  TRP41      -0.1241
      9  CA         7.9380   43.1750   66.0480 C.3    41  TRP41       0.1605
     10  C          6.5200   43.6860   66.3180 C.2    41  TRP41       0.2264
     11  O          6.3390   44.5880   67.1390 O.2    41  TRP41      -0.2867
     12  CB         8.4490   43.9060   64.8170 C.3    41  TRP41       0.0550
     13  CG         9.9260   44.1050   64.6770 C.ar   41  TRP41       0.0003
     14  CD1       10.7190   43.5860   63.7100 C.ar   41  TRP41       0.0946
     15  CD2       10.7550   44.9900   65.4400 C.ar   41  TRP41       0.0152
     16  NE1       11.9980   44.0480   63.8350 N.ar   41  TRP41      -0.2442
     17  CE2       12.0540   44.9110   64.8970 C.ar   41  TRP41       0.0810
     18  CE3       10.5330   45.8210   66.5440 C.ar   41  TRP41       0.0012
     19  CZ2       13.1290   45.6370   65.4150 C.ar   41  TRP41       0.0191
     20  CZ3       11.6070   46.5390   67.0650 C.ar   41  TRP41       0.0001
     21  CH2       12.8800   46.4510   66.4920 C.ar   41  TRP41       0.0015
     22  N         11.2830   44.1590   75.3280 N.3    70  HIS70      -0.1226
     23  CA        11.3690   45.0820   74.1990 C.3    70  HIS70       0.1752
     24  C         10.4070   44.7720   73.0670 C.2    70  HIS70       0.2597
     25  O          9.8640   43.6780   72.9590 O.2    70  HIS70      -0.2718
     26  CB        12.8040   45.1460   73.6740 C.3    70  HIS70       0.0759
     27  CG        13.6930   46.0150   74.5070 C.ar   70  HIS70       0.0818
     28  ND1       14.9290   46.4500   74.0800 N.ar   70  HIS70      -0.2268
     29  CD2       13.4980   46.5640   75.7270 C.ar   70  HIS70       0.1154
     30  CE1       15.4630   47.2190   75.0110 C.ar   70  HIS70       0.1986
     31  NE2       14.6120   47.3130   76.0170 N.ar   70  HIS70      -0.2212
     32  N         10.2190   45.7710   72.2150 N.am   71  THR71      -0.1939
     33  CA         9.2940   45.7150   71.1030 C.3    71  THR71       0.2028
     34  C          9.5960   44.5890   70.1100 C.2    71  THR71       0.2642
     35  O          8.6740   44.0060   69.5540 O.2    71  THR71      -0.2714
     36  CB         9.3120   47.0550   70.3490 C.3    71  THR71       0.1808
     37  OG1       10.6470   47.5690   70.3560 O.3    71  THR71      -0.2208
     38  CG2        8.3750   48.0700   71.0440 C.3    71  THR71       0.0379
     39  N         10.8720   44.2810   69.8750 N.am   72  ASP72      -0.1971
     40  CA        11.1820   43.2120   68.9160 C.3    72  ASP72       0.1709
     41  C         10.9220   41.8080   69.4530 C.2    72  ASP72       0.2293
     42  O         10.8040   40.8780   68.6590 O.2    72  ASP72      -0.2864
     43  CB        12.5950   43.3210   68.3150 C.3    72  ASP72       0.1436
     44  CG        13.7070   43.3330   69.3350 C.2    72  ASP72       0.3671
     45  OD1       13.4730   43.3900   70.5690 O.co2  72  ASP72      -0.2456
     46  OD2       14.8770   43.2810   68.8680 O.co2  72  ASP72      -0.2456
     47  N          9.8270   52.0790   75.7890 N.3   104  ILE104     -0.1245
     48  CA        10.4830   51.3290   74.7140 C.3   104  ILE104      0.1561
     49  C          9.7370   51.5190   73.3850 C.2   104  ILE104      0.2260
     50  O         10.3570   51.5610   72.3330 O.2   104  ILE104     -0.2867
     51  CB        10.7010   49.8230   75.0450 C.3   104  ILE104      0.0252
     52  CG1       11.6340   49.1800   74.0100 C.3   104  ILE104      0.0019
     53  CG2        9.3990   49.0750   75.1150 C.3   104  ILE104      0.0019
     54  CD1       13.0320   49.7800   73.9730 C.3   104  ILE104      0.0001
     55  N         10.9140   54.9240   72.2090 N.3   107  PHE107     -0.1227
     56  CA        12.2880   54.7790   71.7290 C.3   107  PHE107      0.1736
     57  C         12.3180   54.1230   70.3440 C.2   107  PHE107      0.2596
     58  O         13.0210   54.5770   69.4270 O.2   107  PHE107     -0.2718
     59  CB        13.0950   53.9520   72.7300 C.3   107  PHE107      0.0547
     60  CG        14.5100   53.7110   72.3130 C.ar  107  PHE107     -0.0202
     61  CD1       15.5170   54.5810   72.6920 C.ar  107  PHE107     -0.0042
     62  CD2       14.8450   52.5950   71.5510 C.ar  107  PHE107     -0.0042
     63  CE1       16.8330   54.3510   72.3070 C.ar  107  PHE107     -0.0003
     64  CE2       16.1570   52.3680   71.1610 C.ar  107  PHE107     -0.0003
     65  CZ        17.1500   53.2400   71.5470 C.ar  107  PHE107     -0.0000
     66  N         11.5400   53.0600   70.1880 N.am  108  THR108     -0.1953
     67  CA        11.4660   52.3570   68.9090 C.3   108  THR108      0.1897
     68  C         10.9820   53.2770   67.7950 C.2   108  THR108      0.2313
     69  O         11.5390   53.2600   66.6930 O.2   108  THR108     -0.2863
     70  CB        10.5560   51.1280   69.0120 C.3   108  THR108      0.1794
     71  OG1       11.0620   50.2620   70.0450 O.3   108  THR108     -0.2208
     72  CG2       10.5140   50.3630   67.6850 C.3   108  THR108      0.0378
     73  N         13.5380   55.8980   66.0350 N.3   111  GLY111     -0.1210
     74  CA        14.2820   55.3650   64.8960 C.3   111  GLY111      0.1956
     75  C         13.3840   54.8420   63.7820 C.2   111  GLY111      0.2611
     76  O         13.7830   54.8090   62.6120 O.2   111  GLY111     -0.2717
     77  N         12.1760   54.4270   64.1560 N.am  112  LEU112     -0.1979
     78  CA        11.2390   53.7720   63.2570 C.3   112  LEU112      0.1596
     79  C          9.8570   54.4190   63.3730 C.2   112  LEU112      0.2287
     80  O          8.9270   53.8360   63.9220 O.2   112  LEU112     -0.2864
     81  CB        11.1480   52.2780   63.6060 C.3   112  LEU112      0.0297
     82  CG        12.4350   51.4470   63.5230 C.3   112  LEU112      0.0022
     83  CD1       12.2620   50.1190   64.2660 C.3   112  LEU112      0.0001
     84  CD2       12.8470   51.1850   62.0820 C.3   112  LEU112      0.0001
     85  N         22.1000   43.2710   77.4270 N.3   147  HIS147     -0.1241
     86  CA        21.4800   44.2220   76.5090 C.3   147  HIS147      0.1621
     87  C         20.2740   44.9220   77.1630 C.2   147  HIS147      0.2264
     88  O         20.0320   46.1090   76.9210 O.2   147  HIS147     -0.2867
     89  CB        21.1180   43.4960   75.2080 C.3   147  HIS147      0.0745
     90  CG        20.0870   44.1930   74.3920 C.ar  147  HIS147      0.0817
     91  ND1       18.7510   43.8830   74.4870 N.ar  147  HIS147     -0.2268
     92  CD2       20.1840   45.1930   73.4840 C.ar  147  HIS147      0.1154
     93  CE1       18.0670   44.6590   73.6690 C.ar  147  HIS147      0.1986
     94  NE2       18.9110   45.4610   73.0460 N.ar  147  HIS147     -0.2212
     95  N         18.5600   39.2730   71.9540 N.3   166  CYS166     -0.1235
     96  CA        19.2890   40.4920   71.6180 C.3   166  CYS166      0.1677
     97  C         20.6880   40.5380   72.2460 C.2   166  CYS166      0.2270
     98  O         21.4420   41.4760   72.0170 O.2   166  CYS166     -0.2867
     99  CB        18.5000   41.7090   72.0760 C.3   166  CYS166      0.0956
    100  SG        16.8110   41.7350   71.4910 S.3   166  CYS166     -0.0801
    101  N         24.9560   38.6790   68.9260 N.3   169  LYS169     -0.1245
    102  CA        24.7520   39.1610   67.5720 C.3   169  LYS169      0.1561
    103  C         26.1240   39.6090   67.0270 C.2   169  LYS169      0.2260
    104  O         27.1150   39.5900   67.7500 O.2   169  LYS169     -0.2867
    105  CB        23.7430   40.3120   67.5800 C.3   169  LYS169      0.0271
    106  CG        24.1040   41.4020   68.5670 C.3   169  LYS169      0.0035
    107  CD        22.9040   42.1670   69.1100 C.3   169  LYS169      0.0206
    108  CE        23.3620   43.2040   70.1270 C.3   169  LYS169      0.1093
    109  NZ        22.2160   43.7920   70.8820 N.3   169  LYS169     -0.1314
    110  N         22.5580   48.3730   69.7400 N.3   174  ASN174     -0.1240
    111  CA        21.9390   49.2940   70.7050 C.3   174  ASN174      0.1653
    112  C         22.3870   49.0390   72.1390 C.2   174  ASN174      0.2266
    113  O         22.1630   47.9530   72.6780 O.2   174  ASN174     -0.2867
    114  CB        20.4120   49.1390   70.6320 C.3   174  ASN174      0.1155
    115  CG        19.6880   50.0600   71.5980 C.2   174  ASN174      0.2627
    116  OD1       20.0480   51.2300   71.7470 O.2   174  ASN174     -0.2716
    117  ND2       18.6620   49.5320   72.2660 N.am  174  ASN174     -0.0877
    118  N         20.0020   39.4640   66.0540 N.3   204  HIS204     -0.1241
    119  CA        20.0500   40.4480   64.9780 C.3   204  HIS204      0.1621
    120  C         21.2130   40.0610   64.0670 C.2   204  HIS204      0.2264
    121  O         21.9880   39.1680   64.4040 O.2   204  HIS204     -0.2867
    122  CB        20.2400   41.8470   65.5480 C.3   204  HIS204      0.0745
    123  CG        19.0800   42.3080   66.3650 C.ar  204  HIS204      0.0817
    124  ND1       17.8820   42.6840   65.7990 N.ar  204  HIS204     -0.2268
    125  CD2       18.9240   42.4340   67.7030 C.ar  204  HIS204      0.1154
    126  CE1       17.0410   43.0360   66.7550 C.ar  204  HIS204      0.1986
    127  NE2       17.6450   42.8860   67.9170 N.ar  204  HIS204     -0.2212
@<TRIPOS>BOND
     1     1     2    1
     2     2     3    1
     3     2     5    1
     4     3     4    2
     5    84    82    1
     6    76    75    2
     7     7     5    1
     8     5     6    1
     9    78    79    1
    10    78    81    1
    11    78    77    1
    12    79    80    2
    13    82    81    1
    14    82    83    1
    15    14    16   ar
    16    14    13   ar
    17    75    77   am
    18    75    74    1
    19    16    17   ar
    20   120   121    2
    21   120   119    1
    22    13    12    1
    23    13    15   ar
    24    12     9    1
    25    74    73    1
    26    17    19   ar
    27    17    15   ar
    28   119   122    1
    29   119   118    1
    30    19    21   ar
    31    15    18   ar
    32   122   123    1
    33   124   123   ar
    34   124   126   ar
    35     8     9    1
    36     9    10    1
    37    10    11    2
    38   123   125   ar
    39    21    20   ar
    40    18    20   ar
    41    69    68    2
    42   126   127   ar
    43   103   102    1
    44   103   104    2
    45   102   105    1
    46   102   101    1
    47   105   106    1
    48    72    70    1
    49   125   127   ar
    50    68    67    1
    51    43    40    1
    52    43    44    1
    53   106   107    1
    54    42    41    2
    55    46    44   ar
    56    67    70    1
    57    67    66    1
    58    40    41    1
    59    40    39    1
    60    70    71    1
    61   107   108    1
    62    44    45   ar
    63    58    57    2
    64    35    34    2
    65   110   111    1
    66    39    34   am
    67    34    33    1
    68   108   109    1
    69    66    57   am
    70    57    56    1
    71    36    37    1
    72    36    38    1
    73    36    33    1
    74   114   111    1
    75   114   115    1
    76   111   112    1
    77    33    32    1
    78    64    65   ar
    79    64    62   ar
    80   100    99    1
    81    65    63   ar
    82    62    60   ar
    83   115   116    2
    84   115   117   am
    85    96    95    1
    86    96    99    1
    87    96    97    1
    88    56    55    1
    89    56    59    1
    90    98    97    2
    91   112   113    2
    92    32    24   am
    93    63    61   ar
    94    60    61   ar
    95    60    59    1
    96    50    49    2
    97    25    24    2
    98    94    92   ar
    99    94    93   ar
   100    24    23    1
   101    49    48    1
   102    92    90   ar
   103    93    91   ar
   104    26    23    1
   105    26    27    1
   106    54    52    1
   107    52    51    1
   108    28    27   ar
   109    28    30   ar
   110    23    22    1
   111    90    91   ar
   112    90    89    1
   113    27    29   ar
   114    48    51    1
   115    48    47    1
   116    30    31   ar
   117    51    53    1
   118    89    86    1
   119    29    31   ar
   120    86    87    1
   121    86    85    1
   122    88    87    2
