@<TRIPOS>MOLECULE
tmp/2qdtA00.pdb
 131 128 0 0 0
SMALL
GASTEIGER

@<TRIPOS>ATOM
      1  N         13.1510   25.0840   20.3880 N.3    10  TYR10      -0.1241
      2  CA        12.7610   25.4060   21.7420 C.3    10  TYR10       0.1605
      3  C         11.2290   25.2520   21.8860 C.2    10  TYR10       0.2264
      4  O         10.4640   26.1480   21.5210 O.2    10  TYR10      -0.2867
      5  CB        13.2050   26.8330   22.0510 C.3    10  TYR10       0.0534
      6  CG        12.7710   27.2740   23.3950 C.ar   10  TYR10      -0.0201
      7  CD1       13.0490   26.5030   24.5180 C.ar   10  TYR10      -0.0009
      8  CD2       12.0820   28.4760   23.5660 C.ar   10  TYR10      -0.0009
      9  CE1       12.6340   26.9050   25.7660 C.ar   10  TYR10       0.0417
     10  CE2       11.6860   28.8840   24.8170 C.ar   10  TYR10       0.0417
     11  CZ        11.9580   28.0930   25.9100 C.ar   10  TYR10       0.1957
     12  OH        11.5570   28.5350   27.1540 O.3    10  TYR10      -0.2866
     13  N          1.6580   28.2120   27.3150 N.3    16  TRP16      -0.1241
     14  CA         2.5650   29.3510   27.0420 C.3    16  TRP16       0.1605
     15  C          2.2730   30.0160   25.7000 C.2    16  TRP16       0.2264
     16  O          2.6270   31.1800   25.4750 O.2    16  TRP16      -0.2867
     17  CB         4.0340   28.9130   27.0390 C.3    16  TRP16       0.0550
     18  CG         4.5840   28.4310   28.3440 C.ar   16  TRP16       0.0003
     19  CD1        3.8970   27.8590   29.3780 C.ar   16  TRP16       0.0946
     20  CD2        5.9650   28.4090   28.7210 C.ar   16  TRP16       0.0152
     21  NE1        4.7640   27.5040   30.3810 N.ar   16  TRP16      -0.2442
     22  CE2        6.0410   27.8160   29.9980 C.ar   16  TRP16       0.0810
     23  CE3        7.1500   28.8270   28.0970 C.ar   16  TRP16       0.0012
     24  CZ2        7.2610   27.6450   30.6810 C.ar   16  TRP16       0.0191
     25  CZ3        8.3770   28.6480   28.7830 C.ar   16  TRP16       0.0001
     26  CH2        8.4120   28.0670   30.0530 C.ar   16  TRP16       0.0015
     27  N         13.7540   40.1180   31.1390 N.3    83  HIS83      -0.1241
     28  CA        15.0690   39.6190   30.7540 C.3    83  HIS83       0.1621
     29  C         15.0190   39.0540   29.3500 C.2    83  HIS83       0.2264
     30  O         13.9430   38.6840   28.8610 O.2    83  HIS83      -0.2867
     31  CB        15.6140   38.5890   31.7520 C.3    83  HIS83       0.0745
     32  CG        14.8330   37.3220   31.7920 C.ar   83  HIS83       0.0817
     33  ND1       13.6830   37.1830   32.5390 N.ar   83  HIS83      -0.2268
     34  CD2       15.0380   36.1300   31.1870 C.ar   83  HIS83       0.1154
     35  CE1       13.2080   35.9570   32.3890 C.ar   83  HIS83       0.1986
     36  NE2       14.0060   35.2970   31.5730 N.ar   83  HIS83      -0.2212
     37  N         15.5250   36.3530   27.5380 N.3    85  HIS85      -0.1241
     38  CA        15.3870   34.9730   27.1050 C.3    85  HIS85       0.1621
     39  C         14.3060   34.8790   26.0450 C.2    85  HIS85       0.2264
     40  O         13.4480   35.7670   25.9430 O.2    85  HIS85      -0.2867
     41  CB        15.0710   34.0100   28.2750 C.3    85  HIS85       0.0745
     42  CG        16.2640   33.6510   29.1110 C.ar   85  HIS85       0.0817
     43  ND1       16.1530   33.1920   30.4100 N.ar   85  HIS85      -0.2268
     44  CD2       17.5880   33.6360   28.8160 C.ar   85  HIS85       0.1154
     45  CE1       17.3660   32.9530   30.8880 C.ar   85  HIS85       0.1986
     46  NE2       18.2530   33.2050   29.9370 N.ar   85  HIS85      -0.2212
     47  N         11.5830   33.1890   25.6310 N.3    87  ASP87      -0.1225
     48  CA        10.2010   33.1650   26.0370 C.3    87  ASP87       0.1805
     49  C          9.6880   34.4720   26.6310 C.2    87  ASP87       0.2597
     50  O          8.5370   34.5210   27.0350 O.2    87  ASP87      -0.2718
     51  CB         9.9160   31.9710   26.9730 C.3    87  ASP87       0.1424
     52  CG        10.7370   31.9890   28.2700 C.2    87  ASP87       0.3668
     53  OD1       11.8740   32.5070   28.3000 O.co2  87  ASP87      -0.2456
     54  OD2       10.2030   31.4930   29.2870 O.co2  87  ASP87      -0.2456
     55  N         10.5070   35.5280   26.6390 N.am   88  HIS88      -0.1975
     56  CA        10.0550   36.8670   27.0070 C.3    88  HIS88       0.1656
     57  C         10.3880   38.0020   26.0230 C.2    88  HIS88       0.2291
     58  O          9.6380   38.9860   25.9410 O.2    88  HIS88      -0.2864
     59  CB        10.6110   37.1850   28.3860 C.3    88  HIS88       0.0771
     60  CG        10.3810   36.0760   29.3560 C.ar   88  HIS88       0.0820
     61  ND1        9.1300   35.7800   29.8560 N.ar   88  HIS88      -0.2267
     62  CD2       11.2240   35.1470   29.8670 C.ar   88  HIS88       0.1154
     63  CE1        9.2160   34.7270   30.6530 C.ar   88  HIS88       0.1986
     64  NE2       10.4790   34.3320   30.6880 N.ar   88  HIS88      -0.2212
     65  N         22.3720   28.2250   29.3040 N.3   123  PHE123     -0.1241
     66  CA        21.6230   27.4500   28.3070 C.3   123  PHE123      0.1605
     67  C         22.4580   27.1990   27.0430 C.2   123  PHE123      0.2264
     68  O         22.0370   26.4540   26.1510 O.2   123  PHE123     -0.2867
     69  CB        20.3320   28.2000   27.8680 C.3   123  PHE123      0.0534
     70  CG        19.3370   28.4900   28.9810 C.ar  123  PHE123     -0.0203
     71  CD1       19.1630   27.6330   30.0660 C.ar  123  PHE123     -0.0042
     72  CD2       18.5000   29.6030   28.8850 C.ar  123  PHE123     -0.0042
     73  CE1       18.1930   27.9110   31.0470 C.ar  123  PHE123     -0.0003
     74  CE2       17.5480   29.8730   29.8500 C.ar  123  PHE123     -0.0003
     75  CZ        17.3950   29.0380   30.9360 C.ar  123  PHE123     -0.0000
     76  N         18.3690   27.8330   23.5890 N.3   127  ILE127     -0.1245
     77  CA        17.1410   28.6350   23.6490 C.3   127  ILE127      0.1561
     78  C         17.4900   29.9950   23.0590 C.2   127  ILE127      0.2260
     79  O         18.0360   30.8490   23.7280 O.2   127  ILE127     -0.2867
     80  CB        16.6170   28.7820   25.1270 C.3   127  ILE127      0.0252
     81  CG1       16.5140   27.3950   25.7940 C.3   127  ILE127      0.0019
     82  CG2       15.2600   29.5210   25.1890 C.3   127  ILE127      0.0019
     83  CD1       15.7240   27.3600   27.1500 C.3   127  ILE127      0.0001
     84  N         18.8720   35.6420   37.5060 N.3   159  HIS159     -0.1241
     85  CA        18.2700   34.7850   36.4940 C.3   159  HIS159      0.1621
     86  C         19.0040   34.9970   35.1530 C.2   159  HIS159      0.2264
     87  O         19.3460   34.0420   34.4460 O.2   159  HIS159     -0.2867
     88  CB        16.7500   35.0130   36.3640 C.3   159  HIS159      0.0745
     89  CG        16.0920   34.1090   35.3630 C.ar  159  HIS159      0.0817
     90  ND1       15.6860   32.8220   35.6570 N.ar  159  HIS159     -0.2268
     91  CD2       15.8140   34.2960   34.0520 C.ar  159  HIS159      0.1154
     92  CE1       15.1490   32.2750   34.5820 C.ar  159  HIS159      0.1986
     93  NE2       15.2340   33.1420   33.5860 N.ar  159  HIS159     -0.2212
     94  N         11.9350   37.1300   36.8680 N.3   184  SER184     -0.1217
     95  CA        12.1290   35.8000   37.3870 C.3   184  SER184      0.1889
     96  C         13.2640   35.7530   38.3910 C.2   184  SER184      0.2288
     97  O         14.2720   36.4720   38.2340 O.2   184  SER184     -0.2866
     98  CB        12.4750   34.8520   36.2210 C.3   184  SER184      0.2089
     99  OG        11.5370   35.0020   35.1710 O.3   184  SER184     -0.2183
    100  N         14.1210   32.4760   39.4610 N.3   186  SER186     -0.1217
    101  CA        14.4530   31.0770   39.3060 C.3   186  SER186      0.1889
    102  C         15.8810   30.8870   38.8130 C.2   186  SER186      0.2288
    103  O         16.5170   31.8200   38.3410 O.2   186  SER186     -0.2866
    104  CB        13.5270   30.4650   38.2450 C.3   186  SER186      0.2089
    105  OG        13.6340   31.1990   37.0160 O.3   186  SER186     -0.2183
    106  N         16.7580   27.7120   36.6880 N.3   188  PRO188     -0.2116
    107  CA        16.4240   26.3930   36.1510 C.3   188  PRO188      0.1372
    108  C         17.6220   25.6630   35.5560 C.2   188  PRO188      0.2244
    109  O         18.0970   26.0160   34.4860 O.2   188  PRO188     -0.2868
    110  CB        15.3770   26.7060   35.0730 C.3   188  PRO188      0.0268
    111  CG        15.6860   28.0990   34.6320 C.3   188  PRO188      0.0207
    112  CD        16.1910   28.7970   35.8660 C.3   188  PRO188      0.0892
    113  N          6.4990   34.7600   34.0960 N.3   224  HIS224     -0.1241
    114  CA         5.6860   33.5400   34.1680 C.3   224  HIS224      0.1621
    115  C          4.6600   33.8170   35.2590 C.2   224  HIS224      0.2264
    116  O          5.0310   33.9550   36.4290 O.2   224  HIS224     -0.2867
    117  CB         6.5390   32.3290   34.5150 C.3   224  HIS224      0.0745
    118  CG         7.5310   31.9820   33.4500 C.ar  224  HIS224      0.0817
    119  ND1        7.2250   31.1530   32.3950 N.ar  224  HIS224     -0.2268
    120  CD2        8.8130   32.3800   33.2590 C.ar  224  HIS224      0.1154
    121  CE1        8.2760   31.0540   31.6010 C.ar  224  HIS224      0.1986
    122  NE2        9.2600   31.7670   32.1140 N.ar  224  HIS224     -0.2212
    123  N         13.4350   28.4910   47.9090 N.3   255  LYS255     -0.1245
    124  CA        13.6840   27.5540   46.8140 C.3   255  LYS255      0.1561
    125  C         15.1630   27.5140   46.4050 C.2   255  LYS255      0.2260
    126  O         15.7250   26.4500   46.1670 O.2   255  LYS255     -0.2867
    127  CB        12.8270   27.8530   45.5790 C.3   255  LYS255      0.0271
    128  CG        12.6500   26.5690   44.7490 C.3   255  LYS255      0.0035
    129  CD        12.1450   26.8010   43.3580 C.3   255  LYS255      0.0206
    130  CE        12.0720   25.4990   42.5650 C.3   255  LYS255      0.1093
    131  NZ        11.2660   25.7170   41.2930 N.3   255  LYS255     -0.1314
@<TRIPOS>BOND
     1     1     2    1
     2     4     3    2
     3     2     3    1
     4     2     5    1
     5     5     6    1
     6    78    77    1
     7    78    79    2
     8     6     8   ar
     9     6     7   ar
    10     8    10   ar
    11    76    77    1
    12    77    80    1
    13     7     9   ar
    14    10    11   ar
    15    80    82    1
    16    80    81    1
    17    16    15    2
    18    47    48    1
    19    15    14    1
    20     9    11   ar
    21    81    83    1
    22    11    12    1
    23    58    57    2
    24    40    39    2
    25    57    56    1
    26    48    49    1
    27    48    51    1
    28    39    38    1
    29    68    67    2
    30    49    55   am
    31    49    50    2
    32    55    56    1
    33    51    52    1
    34    56    59    1
    35    17    14    1
    36    17    18    1
    37    14    13    1
    38    67    66    1
    39    38    37    1
    40    38    41    1
    41    69    66    1
    42    69    70    1
    43    23    20   ar
    44    23    25   ar
    45    52    53   ar
    46    52    54   ar
    47    41    42    1
    48    66    65    1
    49    18    20   ar
    50    18    19   ar
    51    59    60    1
    52    20    22   ar
    53    25    26   ar
    54    44    42   ar
    55    44    46   ar
    56    30    29    2
    57    72    70   ar
    58    72    74   ar
    59    70    71   ar
    60    42    43   ar
    61    29    28    1
    62    60    61   ar
    63    60    62   ar
    64    19    21   ar
    65    74    75   ar
    66    61    63   ar
    67    62    64   ar
    68    46    45   ar
    69    22    21   ar
    70    22    24   ar
    71    26    24   ar
    72    71    73   ar
    73    43    45   ar
    74    63    64   ar
    75    28    27    1
    76    28    31    1
    77    75    73   ar
    78    34    36   ar
    79    34    32   ar
    80    36    35   ar
    81   121   122   ar
    82   121   119   ar
    83    31    32    1
    84    32    33   ar
    85   122   120   ar
    86    35    33   ar
    87   119   118   ar
    88   120   118   ar
    89   118   117    1
    90    93    91   ar
    91    93    92   ar
    92    91    89   ar
    93   113   114    1
    94   114   117    1
    95   114   115    1
    96    87    86    2
    97   109   108    2
    98    92    90   ar
    99   111   110    1
   100   111   112    1
   101   110   107    1
   102    86    85    1
   103    99    98    1
   104   115   116    2
   105    89    90   ar
   106    89    88    1
   107   108   107    1
   108   112   106    1
   109   107   106    1
   110    98    95    1
   111    88    85    1
   112    85    84    1
   113    94    95    1
   114   105   104    1
   115    95    96    1
   116    97    96    2
   117   104   101    1
   118   103   102    2
   119   102   101    1
   120   101   100    1
   121   131   130    1
   122   130   129    1
   123   129   128    1
   124   128   127    1
   125   127   124    1
   126   126   125    2
   127   125   124    1
   128   124   123    1
