@<TRIPOS>MOLECULE
tmp/2qe2B00.pdb
 143 135 0 0 0
SMALL
GASTEIGER

@<TRIPOS>ATOM
      1  N        -54.5040   24.5660   52.5440 N.3   158  GLY158     -0.1210
      2  CA       -55.3070   25.7290   52.9010 C.3   158  GLY158      0.1956
      3  C        -56.4350   26.2210   52.0200 C.2   158  GLY158      0.2611
      4  O        -57.4670   26.6530   52.5280 O.2   158  GLY158     -0.2717
      5  N        -56.2360   26.1990   50.7100 N.am  159  PHE159     -0.1976
      6  CA       -57.2390   26.6660   49.7720 C.3   159  PHE159      0.1639
      7  C        -58.5460   25.8790   49.8170 C.2   159  PHE159      0.2290
      8  O        -59.5280   26.2620   49.1710 O.2   159  PHE159     -0.2864
      9  CB       -56.6400   26.6580   48.3700 C.3   159  PHE159      0.0560
     10  CG       -55.4660   27.5820   48.2270 C.ar  159  PHE159     -0.0200
     11  CD1      -55.6440   28.9510   48.4060 C.ar  159  PHE159     -0.0042
     12  CD2      -54.1780   27.0920   47.9960 C.ar  159  PHE159     -0.0042
     13  CE1      -54.5750   29.8270   48.3690 C.ar  159  PHE159     -0.0003
     14  CE2      -53.0810   27.9720   47.9540 C.ar  159  PHE159     -0.0003
     15  CZ       -53.2890   29.3420   48.1420 C.ar  159  PHE159     -0.0000
     16  N        -62.7350   31.4430   54.6730 N.3   163  PRO163     -0.2116
     17  CA       -62.1570   32.0790   55.8660 C.3   163  PRO163      0.1372
     18  C        -62.6640   31.5320   57.1960 C.2   163  PRO163      0.2244
     19  O        -61.8950   31.3300   58.1360 O.2   163  PRO163     -0.2868
     20  CB       -62.5370   33.5340   55.6920 C.3   163  PRO163      0.0268
     21  CG       -62.4490   33.7090   54.2090 C.3   163  PRO163      0.0207
     22  CD       -63.1650   32.4640   53.6960 C.3   163  PRO163      0.0892
     23  N        -61.2040   28.1500   57.9890 N.3   166  ARG166     -0.1245
     24  CA       -59.7750   28.2250   58.2730 C.3   166  ARG166      0.1563
     25  C        -59.5880   28.5300   59.7410 C.2   166  ARG166      0.2260
     26  O        -58.7670   27.9330   60.4390 O.2   166  ARG166     -0.2867
     27  CB       -59.1370   29.3290   57.4280 C.3   166  ARG166      0.0307
     28  CG       -57.6260   29.4260   57.5110 C.3   166  ARG166      0.0489
     29  CD       -57.1510   30.7300   56.8730 C.3   166  ARG166      0.2205
     30  NE       -55.7330   30.9860   57.0960 N.pl3 166  ARG166     -0.0865
     31  CZ       -54.7530   30.2570   56.5700 C.cat 166  ARG166      0.5346
     32  NH1      -53.4800   30.5670   56.8350 N.pl3 166  ARG166      0.1354
     33  NH2      -55.0550   29.2330   55.7710 N.pl3 166  ARG166      0.1354
     34  N        -50.5220   26.8520   52.2100 N.3   282  ASN282     -0.1240
     35  CA       -51.1530   27.5050   51.0710 C.3   282  ASN282      0.1653
     36  C        -50.0890   28.3490   50.3900 C.2   282  ASN282      0.2266
     37  O        -49.7660   29.4470   50.8380 O.2   282  ASN282     -0.2867
     38  CB       -52.3190   28.3990   51.4900 C.3   282  ASN282      0.1155
     39  CG       -52.4110   28.5610   52.9700 C.2   282  ASN282      0.2627
     40  OD1      -53.2320   27.9340   53.6190 O.2   282  ASN282     -0.2716
     41  ND2      -51.5440   29.4230   53.5270 N.am  282  ASN282     -0.0877
     42  N        -50.3320   34.6640   55.9000 N.3   330  CYS330     -0.1235
     43  CA       -51.2620   35.1500   54.8960 C.3   330  CYS330      0.1677
     44  C        -51.5880   36.5660   55.3990 C.2   330  CYS330      0.2270
     45  O        -52.6720   37.1030   55.1680 O.2   330  CYS330     -0.2867
     46  CB       -52.5180   34.2480   54.8490 C.3   330  CYS330      0.0956
     47  SG       -52.2110   32.5460   54.2520 S.3   330  CYS330     -0.0801
     48  N        -52.5920   37.3880   57.8350 N.3   332  SER332     -0.1217
     49  CA       -53.7380   37.2860   58.7130 C.3   332  SER332      0.1889
     50  C        -53.3880   36.6690   60.0640 C.2   332  SER332      0.2288
     51  O        -52.4340   35.8960   60.2030 O.2   332  SER332     -0.2866
     52  CB       -54.8220   36.4480   58.0450 C.3   332  SER332      0.2089
     53  OG       -55.1540   36.9800   56.7850 O.3   332  SER332     -0.2183
     54  N        -60.7730   35.7390   61.4840 N.3   348  LEU348     -0.1245
     55  CA       -59.4850   36.1100   60.9380 C.3   348  LEU348      0.1561
     56  C        -59.4200   37.5680   60.5410 C.2   348  LEU348      0.2260
     57  O        -60.3510   38.1170   59.9710 O.2   348  LEU348     -0.2867
     58  CB       -59.1610   35.2320   59.7360 C.3   348  LEU348      0.0270
     59  CG       -58.3300   33.9950   60.0820 C.3   348  LEU348      0.0019
     60  CD1      -58.4260   33.0420   58.9140 C.3   348  LEU348      0.0001
     61  CD2      -56.8580   34.3860   60.4000 C.3   348  LEU348      0.0001
     62  N        -56.4740   41.1120   59.6500 N.3   350  ARG350     -0.1245
     63  CA       -55.1530   41.4940   59.1770 C.3   350  ARG350      0.1563
     64  C        -54.9170   42.9900   59.3320 C.2   350  ARG350      0.2260
     65  O        -55.8350   43.7510   59.6610 O.2   350  ARG350     -0.2867
     66  CB       -54.9850   41.1140   57.6920 C.3   350  ARG350      0.0307
     67  CG       -55.9790   41.7920   56.7370 C.3   350  ARG350      0.0489
     68  CD       -55.5190   41.6180   55.3020 C.3   350  ARG350      0.2205
     69  NE       -54.2880   42.3790   55.0400 N.pl3 350  ARG350     -0.0865
     70  CZ       -53.4200   42.1550   54.0420 C.cat 350  ARG350      0.5346
     71  NH1      -53.6010   41.1710   53.1630 N.pl3 350  ARG350      0.1354
     72  NH2      -52.3650   42.9490   53.9090 N.pl3 350  ARG350      0.1354
     73  N        -60.5750   45.0740   44.6360 N.3   371  SER371     -0.1217
     74  CA       -59.9620   44.6450   45.8810 C.3   371  SER371      0.1889
     75  C        -60.9290   44.7890   47.0280 C.2   371  SER371      0.2288
     76  O        -61.0460   43.9110   47.8810 O.2   371  SER371     -0.2866
     77  CB       -58.7490   45.5080   46.1930 C.3   371  SER371      0.2089
     78  OG       -57.9210   45.6390   45.0600 O.3   371  SER371     -0.2183
     79  N        -63.5390   41.9390   47.3900 N.3   374  GLY374     -0.1210
     80  CA       -62.8820   40.7230   47.8230 C.3   374  GLY374      0.1956
     81  C        -62.6620   40.7590   49.3220 C.2   374  GLY374      0.2611
     82  O        -63.0880   39.8590   50.0580 O.2   374  GLY374     -0.2717
     83  N        -61.9890   41.8230   49.7620 N.am  375  ASN375     -0.1974
     84  CA       -61.6880   42.0380   51.1670 C.3   375  ASN375      0.1688
     85  C        -62.9680   42.0470   51.9750 C.2   375  ASN375      0.2292
     86  O        -63.0080   41.5160   53.0800 O.2   375  ASN375     -0.2864
     87  CB       -60.9280   43.3490   51.3750 C.3   375  ASN375      0.1181
     88  CG       -59.4560   43.2500   50.9940 C.2   375  ASN375      0.2629
     89  OD1      -58.7350   42.3540   51.4160 O.2   375  ASN375     -0.2716
     90  ND2      -59.0100   44.2010   50.1870 N.am  375  ASN375     -0.0877
     91  N        -63.7420   38.3570   52.1460 N.3   378  MET378     -0.1230
     92  CA       -62.8630   37.5470   52.9860 C.3   378  MET378      0.1702
     93  C        -62.7370   38.0750   54.4040 C.2   378  MET378      0.2592
     94  O        -62.4030   37.3260   55.3100 O.2   378  MET378     -0.2718
     95  CB       -61.4730   37.4250   52.3560 C.3   378  MET378      0.0401
     96  CG       -61.4820   36.8600   50.9580 C.3   378  MET378      0.0596
     97  SD       -61.9610   35.1510   50.9620 S.3   378  MET378     -0.1393
     98  CE       -60.3630   34.3810   51.4410 C.3   378  MET378      0.0692
     99  N        -63.0200   39.3520   54.6160 N.am  379  TYR379     -0.1976
    100  CA       -62.8800   39.8960   55.9580 C.3   379  TYR379      0.1639
    101  C        -64.1340   40.4910   56.5910 C.2   379  TYR379      0.2290
    102  O        -64.0720   41.2440   57.5540 O.2   379  TYR379     -0.2864
    103  CB       -61.7300   40.8980   55.9600 C.3   379  TYR379      0.0560
    104  CG       -60.3780   40.2460   55.7470 C.ar  379  TYR379     -0.0198
    105  CD1      -59.7240   39.5790   56.7890 C.ar  379  TYR379     -0.0009
    106  CD2      -59.7350   40.3370   54.5200 C.ar  379  TYR379     -0.0009
    107  CE1      -58.4570   39.0350   56.6110 C.ar  379  TYR379      0.0417
    108  CE2      -58.4630   39.7970   54.3280 C.ar  379  TYR379      0.0417
    109  CZ       -57.8230   39.1540   55.3770 C.ar  379  TYR379      0.1957
    110  OH       -56.5260   38.6940   55.2080 O.3   379  TYR379     -0.2866
    111  N        -61.7290   38.5100   42.7590 N.3   410  GLN410     -0.1231
    112  CA       -60.7280   37.4430   42.8230 C.3   410  GLN410      0.1698
    113  C        -60.6800   36.7770   44.2130 C.2   410  GLN410      0.2592
    114  O        -60.4650   37.4330   45.2280 O.2   410  GLN410     -0.2718
    115  CB       -59.3410   38.0020   42.4420 C.3   410  GLN410      0.0381
    116  CG       -58.3260   36.9600   41.9850 C.3   410  GLN410      0.0905
    117  CD       -57.1860   37.5690   41.1670 C.2   410  GLN410      0.2608
    118  OE1      -57.4240   38.2490   40.1650 O.2   410  GLN410     -0.2717
    119  NE2      -55.9420   37.3220   41.5910 N.am  410  GLN410     -0.0878
    120  N        -60.9110   35.4700   44.2540 N.am  411  ILE411     -0.1966
    121  CA       -60.8640   34.7380   45.5140 C.3   411  ILE411      0.1727
    122  C        -59.9960   33.5200   45.2630 C.2   411  ILE411      0.2616
    123  O        -60.3370   32.6550   44.4500 O.2   411  ILE411     -0.2715
    124  CB       -62.2750   34.3090   45.9960 C.3   411  ILE411      0.0290
    125  CG1      -63.1600   35.5360   46.2430 C.3   411  ILE411      0.0022
    126  CG2      -62.1670   33.5750   47.3090 C.3   411  ILE411      0.0023
    127  CD1      -64.5630   35.1940   46.7420 C.3   411  ILE411      0.0001
    128  N        -58.8650   33.4940   45.9660 N.am  412  TYR412     -0.1960
    129  CA       -57.8410   32.4520   45.8520 C.3   412  TYR412      0.1771
    130  C        -57.3240   32.3480   44.4320 C.2   412  TYR412      0.2620
    131  O        -57.1980   31.2460   43.8880 O.2   412  TYR412     -0.2715
    132  CB       -58.3280   31.0750   46.3090 C.3   412  TYR412      0.0574
    133  CG       -58.5310   30.9600   47.8030 C.ar  412  TYR412     -0.0198
    134  CD1      -57.9570   31.8820   48.6710 C.ar  412  TYR412     -0.0009
    135  CD2      -59.3250   29.9450   48.3470 C.ar  412  TYR412     -0.0009
    136  CE1      -58.1730   31.8060   50.0330 C.ar  412  TYR412      0.0417
    137  CE2      -59.5440   29.8620   49.7050 C.ar  412  TYR412      0.0417
    138  CZ       -58.9680   30.7970   50.5430 C.ar  412  TYR412      0.1957
    139  OH       -59.2010   30.7330   51.8960 O.3   412  TYR412     -0.2866
    140  N        -57.0400   33.5070   43.8380 N.am  413  GLY413     -0.1954
    141  CA       -56.4920   33.5520   42.4930 C.3   413  GLY413      0.1869
    142  C        -57.4330   33.2590   41.3440 C.2   413  GLY413      0.2309
    143  O        -57.0430   33.3680   40.1830 O.2   413  GLY413     -0.2863
@<TRIPOS>BOND
     1   118   117    2
     2   143   142    2
     3   117   119   am
     4   117   116    1
     5   142   141    1
     6   116   115    1
     7   115   112    1
     8   141   140    1
     9   111   112    1
    10   112   113    1
    11   140   130   am
    12   131   130    2
    13   113   120   am
    14   113   114    2
    15   120   121    1
    16   130   129    1
    17   123   122    2
    18    73    74    1
    19    78    77    1
    20   122   121    1
    21   122   128   am
    22   121   124    1
    23   129   128    1
    24   129   132    1
    25    74    77    1
    26    74    75    1
    27   124   125    1
    28   124   126    1
    29   125   127    1
    30   132   133    1
    31    75    76    2
    32    79    80    1
    33   133   135   ar
    34   133   134   ar
    35    80    81    1
    36    14    12   ar
    37    14    15   ar
    38    12    10   ar
    39    15    13   ar
    40    10     9    1
    41    10    11   ar
    42   135   137   ar
    43    13    11   ar
    44     9     6    1
    45   134   136   ar
    46     8     7    2
    47    81    83   am
    48    81    82    2
    49   137   138   ar
    50    83    84    1
    51     6     7    1
    52     6     5    1
    53   136   138   ar
    54    90    88   am
    55    36    37    2
    56    36    35    1
    57   138   139    1
    58     5     3   am
    59    96    97    1
    60    96    95    1
    61    97    98    1
    62    88    87    1
    63    88    89    2
    64    35    38    1
    65    35    34    1
    66    84    87    1
    67    84    85    1
    68    38    39    1
    69    85    86    2
    70     3     4    2
    71     3     2    1
    72    91    92    1
    73    95    92    1
    74     1     2    1
    75    39    41   am
    76    39    40    2
    77    92    93    1
    78    71    70    1
    79    22    21    1
    80    22    16    1
    81    72    70    1
    82    70    69    2
    83    21    20    1
    84    47    46    1
    85   108   106   ar
    86   108   109   ar
    87    93    99   am
    88    93    94    2
    89   106   104   ar
    90    99   100    1
    91    16    17    1
    92    46    43    1
    93    43    44    1
    94    43    42    1
    95    69    68    1
    96    45    44    2
    97   110   109    1
    98    68    67    1
    99   109   107   ar
   100    20    17    1
   101   104   103    1
   102   104   105   ar
   103    33    31    1
   104    17    18    1
   105   100   103    1
   106   100   101    1
   107    31    32    1
   108    31    30    2
   109   101   102    2
   110   107   105   ar
   111    67    66    1
   112    53    52    1
   113    29    30    1
   114    29    28    1
   115    18    19    2
   116    27    28    1
   117    27    24    1
   118    66    63    1
   119    48    49    1
   120    23    24    1
   121    52    49    1
   122    24    25    1
   123    49    50    1
   124    60    59    1
   125    63    64    1
   126    63    62    1
   127    64    65    2
   128    58    59    1
   129    58    55    1
   130    25    26    2
   131    57    56    2
   132    50    51    2
   133    59    61    1
   134    56    55    1
   135    55    54    1
