@<TRIPOS>MOLECULE
tmp/2qe4B00.pdb
 170 161 0 0 0
SMALL
GASTEIGER

@<TRIPOS>ATOM
      1  N         22.4230   18.0520   38.1380 N.3    28  MET28      -0.1245
      2  CA        21.7230   18.3480   36.8960 C.3    28  MET28       0.1570
      3  C         22.4990   19.3210   36.0200 C.2    28  MET28       0.2261
      4  O         22.4750   19.2140   34.7970 O.2    28  MET28      -0.2867
      5  CB        20.3420   18.9310   37.2030 C.3    28  MET28       0.0387
      6  CG        19.3610   17.9100   37.7360 C.3    28  MET28       0.0595
      7  SD        19.0640   16.6410   36.4920 S.3    28  MET28      -0.1393
      8  CE        18.3190   17.6660   35.1820 C.3    28  MET28       0.0692
      9  N         25.2000   17.4370   34.0330 N.3    31  LEU31      -0.1231
     10  CA        24.5970   16.6390   32.9750 C.3    31  LEU31       0.1693
     11  C         24.0850   17.4960   31.8060 C.2    31  LEU31       0.2592
     12  O         24.2790   17.1320   30.6390 O.2    31  LEU31      -0.2718
     13  CB        23.4520   15.7980   33.5410 C.3    31  LEU31       0.0284
     14  CG        23.9030   14.8380   34.6480 C.3    31  LEU31       0.0019
     15  CD1       22.7050   14.0620   35.2080 C.3    31  LEU31       0.0001
     16  CD2       24.9510   13.8960   34.0830 C.3    31  LEU31       0.0001
     17  N         23.4310   18.6170   32.1110 N.am   32  THR32      -0.1953
     18  CA        22.9130   19.4740   31.0540 C.3    32  THR32       0.1897
     19  C         24.0760   20.1830   30.3810 C.2    32  THR32       0.2313
     20  O         24.0750   20.3880   29.1670 O.2    32  THR32      -0.2863
     21  CB        21.9380   20.5340   31.5800 C.3    32  THR32       0.1794
     22  OG1       22.6160   21.3820   32.5120 O.3    32  THR32      -0.2208
     23  CG2       20.7550   19.8830   32.2550 C.3    32  THR32       0.0378
     24  N         27.1030   19.0040   30.1150 N.3    34  LEU34      -0.1231
     25  CA        27.7240   17.9540   29.3140 C.3    34  LEU34       0.1693
     26  C         26.8480   17.6100   28.1080 C.2    34  LEU34       0.2591
     27  O         27.3390   17.4540   26.9880 O.2    34  LEU34      -0.2718
     28  CB        27.9510   16.6890   30.1520 C.3    34  LEU34       0.0284
     29  CG        28.4780   15.4810   29.3660 C.3    34  LEU34       0.0019
     30  CD1       29.7990   15.8520   28.6820 C.3    34  LEU34       0.0001
     31  CD2       28.6730   14.2820   30.2930 C.3    34  LEU34       0.0001
     32  N         25.5450   17.5110   28.3400 N.am   35  ALA35      -0.1980
     33  CA        24.6130   17.1700   27.2810 C.3    35  ALA35       0.1597
     34  C         24.5690   18.2370   26.2010 C.2    35  ALA35       0.2287
     35  O         24.4970   17.9270   25.0060 O.2    35  ALA35      -0.2864
     36  CB        23.2290   16.9640   27.8610 C.3    35  ALA35       0.0319
     37  N         27.6550   18.1080   24.1450 N.3    38  GLU38      -0.1245
     38  CA        27.5550   16.9340   23.2870 C.3    38  GLU38       0.1567
     39  C         26.6490   17.1820   22.0770 C.2    38  GLU38       0.2260
     40  O         26.8890   16.6630   20.9850 O.2    38  GLU38      -0.2867
     41  CB        27.0010   15.7520   24.0700 C.3    38  GLU38       0.0388
     42  CG        28.0090   14.9990   24.9030 C.3    38  GLU38       0.1160
     43  CD        27.3750   13.8150   25.5990 C.2    38  GLU38       0.3649
     44  OE1       26.6920   14.0200   26.6210 O.co2  38  GLU38      -0.2457
     45  OE2       27.5360   12.6760   25.1110 O.co2  38  GLU38      -0.2457
     46  N         17.4850   13.2220   19.4070 N.3    68  TRP68      -0.1227
     47  CA        18.6560   13.6440   20.1720 C.3    68  TRP68       0.1737
     48  C         18.8860   12.9770   21.5370 C.2    68  TRP68       0.2595
     49  O         20.0170   12.6000   21.8510 O.2    68  TRP68      -0.2718
     50  CB        18.6990   15.1740   20.3270 C.3    68  TRP68       0.0564
     51  CG        17.6740   15.7600   21.2620 C.ar   68  TRP68       0.0003
     52  CD1       16.4230   16.2160   20.9370 C.ar   68  TRP68       0.0946
     53  CD2       17.7980   15.9150   22.6860 C.ar   68  TRP68       0.0152
     54  NE1       15.7640   16.6360   22.0690 N.ar   68  TRP68      -0.2442
     55  CE2       16.5850   16.4600   23.1550 C.ar   68  TRP68       0.0810
     56  CE3       18.8150   15.6390   23.6090 C.ar   68  TRP68       0.0012
     57  CZ2       16.3650   16.7370   24.5010 C.ar   68  TRP68       0.0191
     58  CZ3       18.5960   15.9120   24.9390 C.ar   68  TRP68       0.0001
     59  CH2       17.3810   16.4540   25.3770 C.ar   68  TRP68       0.0015
     60  N         17.8360   12.8110   22.3390 N.am   69  LEU69      -0.1980
     61  CA        18.0040   12.2000   23.6540 C.3    69  LEU69       0.1596
     62  C         18.2000   10.6940   23.5640 C.2    69  LEU69       0.2287
     63  O         18.8970   10.1150   24.3900 O.2    69  LEU69      -0.2864
     64  CB        16.8130   12.5310   24.5690 C.3    69  LEU69       0.0297
     65  CG        16.8740   12.0350   26.0210 C.3    69  LEU69       0.0022
     66  CD1       18.2170   12.3810   26.6350 C.3    69  LEU69       0.0001
     67  CD2       15.7380   12.6490   26.8360 C.3    69  LEU69       0.0001
     68  N         21.8720   10.4640   22.7330 N.3    72  LEU72      -0.1231
     69  CA        22.7470   10.6690   23.8810 C.3    72  LEU72       0.1693
     70  C         22.7160    9.4220   24.7500 C.2    72  LEU72       0.2591
     71  O         23.7600    8.9240   25.1630 O.2    72  LEU72      -0.2718
     72  CB        22.3060   11.8750   24.7120 C.3    72  LEU72       0.0284
     73  CG        22.4420   13.2710   24.0990 C.3    72  LEU72       0.0019
     74  CD1       22.0410   14.2990   25.1540 C.3    72  LEU72       0.0001
     75  CD2       23.8750   13.5170   23.6320 C.3    72  LEU72       0.0001
     76  N         21.5100    8.9070   24.9910 N.am   73  MET73      -0.1979
     77  CA        21.3270    7.7310   25.8220 C.3    73  MET73       0.1605
     78  C         21.9820    6.4720   25.2970 C.2    73  MET73       0.2287
     79  O         22.6010    5.7530   26.0740 O.2    73  MET73      -0.2864
     80  CB        19.8430    7.4790   26.0840 C.3    73  MET73       0.0413
     81  CG        19.2500    8.4000   27.1440 C.3    73  MET73       0.0598
     82  SD        17.4500    8.2450   27.2880 S.3    73  MET73      -0.1393
     83  CE        17.1620    8.8770   28.9390 C.3    73  MET73       0.0692
     84  N         25.6120    6.8800   25.9900 N.3    76  LEU76      -0.1245
     85  CA        25.8480    6.7450   27.4150 C.3    76  LEU76       0.1561
     86  C         25.9260    5.2650   27.7370 C.2    76  LEU76       0.2260
     87  O         26.8990    4.7890   28.3270 O.2    76  LEU76      -0.2867
     88  CB        24.6930    7.3630   28.2020 C.3    76  LEU76       0.0270
     89  CG        24.7400    6.9810   29.6810 C.3    76  LEU76       0.0019
     90  CD1       26.0640    7.4910   30.2440 C.3    76  LEU76       0.0001
     91  CD2       23.5490    7.5450   30.4510 C.3    76  LEU76       0.0001
     92  N         29.2440    3.4930   26.4130 N.3    79  ARG79      -0.1245
     93  CA        30.4770    3.6110   27.1750 C.3    79  ARG79       0.1563
     94  C         30.3860    3.0550   28.6050 C.2    79  ARG79       0.2260
     95  O         31.4000    2.9610   29.3040 O.2    79  ARG79      -0.2867
     96  CB        30.9920    5.0670   27.1630 C.3    79  ARG79       0.0307
     97  CG        29.9650    6.1590   27.3980 C.3    79  ARG79       0.0489
     98  CD        30.5850    7.5550   27.2160 C.3    79  ARG79       0.2205
     99  NE        29.6960    8.6400   27.6490 N.pl3  79  ARG79      -0.0865
    100  CZ        28.7400    9.1920   26.8960 C.cat  79  ARG79       0.5346
    101  NH1       28.5400    8.7710   25.6580 N.pl3  79  ARG79       0.1354
    102  NH2       27.9760   10.1670   27.3860 N.pl3  79  ARG79       0.1354
    103  N         28.8500    8.7470   32.2480 N.3    89  PHE89      -0.1241
    104  CA        28.4100    9.9250   31.5080 C.3    89  PHE89       0.1605
    105  C         29.6300   10.5770   30.8400 C.2    89  PHE89       0.2264
    106  O         29.5620   11.0410   29.7090 O.2    89  PHE89      -0.2867
    107  CB        27.7290   10.9100   32.4670 C.3    89  PHE89       0.0534
    108  CG        26.3670   10.4670   32.9240 C.ar   89  PHE89      -0.0203
    109  CD1       25.2580   10.6350   32.1100 C.ar   89  PHE89      -0.0042
    110  CD2       26.1970    9.8620   34.1560 C.ar   89  PHE89      -0.0042
    111  CE1       24.0140   10.2070   32.5180 C.ar   89  PHE89      -0.0003
    112  CE2       24.9500    9.4330   34.5670 C.ar   89  PHE89      -0.0003
    113  CZ        23.8610    9.6070   33.7460 C.ar   89  PHE89      -0.0000
    114  N         15.2900   10.3350   39.3690 N.3   106  MET106     -0.1245
    115  CA        16.3540    9.8390   38.5120 C.3   106  MET106      0.1570
    116  C         16.7330    8.3740   38.6880 C.2   106  MET106      0.2261
    117  O         17.3530    7.7850   37.8020 O.2   106  MET106     -0.2867
    118  CB        17.6040   10.7010   38.6640 C.3   106  MET106      0.0387
    119  CG        18.6320   10.4520   37.5680 C.3   106  MET106      0.0595
    120  SD        20.0710   11.5240   37.6980 S.3   106  MET106     -0.1393
    121  CE        19.4510   13.0150   36.8560 C.3   106  MET106      0.0692
    122  N         15.1000    6.0640   35.9640 N.3   109  ILE109     -0.1231
    123  CA        15.7360    6.1560   34.6640 C.3   109  ILE109      0.1692
    124  C         17.1020    5.4800   34.6880 C.2   109  ILE109      0.2592
    125  O         17.4640    4.7910   33.7390 O.2   109  ILE109     -0.2718
    126  CB        15.8760    7.6280   34.2230 C.3   109  ILE109      0.0266
    127  CG1       14.4810    8.2560   34.1510 C.3   109  ILE109      0.0019
    128  CG2       16.5530    7.7130   32.8610 C.3   109  ILE109      0.0020
    129  CD1       14.4700    9.7030   33.7690 C.3   109  ILE109      0.0001
    130  N         17.8480    5.6630   35.7760 N.am  110  PHE110     -0.1976
    131  CA        19.1680    5.0500   35.9050 C.3   110  PHE110      0.1639
    132  C         19.0520    3.5430   35.7590 C.2   110  PHE110      0.2290
    133  O         19.7730    2.9210   34.9830 O.2   110  PHE110     -0.2864
    134  CB        19.7800    5.3410   37.2760 C.3   110  PHE110      0.0560
    135  CG        20.8340    6.4040   37.2720 C.ar  110  PHE110     -0.0200
    136  CD1       22.0420    6.1890   37.9120 C.ar  110  PHE110     -0.0042
    137  CD2       20.5940    7.6520   36.7070 C.ar  110  PHE110     -0.0042
    138  CE1       22.9910    7.2010   37.9980 C.ar  110  PHE110     -0.0003
    139  CE2       21.5440    8.6760   36.7900 C.ar  110  PHE110     -0.0003
    140  CZ        22.7380    8.4500   37.4380 C.ar  110  PHE110     -0.0000
    141  N         18.5970    2.5200   32.3810 N.3   113  LEU113     -0.1245
    142  CA        19.8510    2.7120   31.6590 C.3   113  LEU113      0.1561
    143  C         20.8350    1.5920   31.9620 C.2   113  LEU113      0.2260
    144  O         21.4220    1.0120   31.0520 O.2   113  LEU113     -0.2867
    145  CB        20.4760    4.0750   31.9970 C.3   113  LEU113      0.0270
    146  CG        19.7480    5.2560   31.3490 C.3   113  LEU113      0.0019
    147  CD1       20.2620    6.5980   31.8880 C.3   113  LEU113      0.0001
    148  CD2       19.9240    5.1510   29.8370 C.3   113  LEU113      0.0001
    149  N         12.7370   10.2030   30.0760 N.3   197  GLY197     -0.1225
    150  CA        13.7340   11.2370   30.2620 C.3   197  GLY197      0.1811
    151  C         13.1870   12.6100   29.9690 C.2   197  GLY197      0.2280
    152  O         13.4620   13.5430   30.7060 O.2   197  GLY197     -0.2866
    153  N         10.9410   13.7260   32.7050 N.3   200  HIS200     -0.1226
    154  CA        11.7580   14.1230   33.8410 C.3   200  HIS200      0.1752
    155  C         12.3530   15.5100   33.6180 C.2   200  HIS200      0.2595
    156  O         12.5280   16.2730   34.5620 O.2   200  HIS200     -0.2718
    157  CB        12.8710   13.0970   34.0510 C.3   200  HIS200      0.0759
    158  CG        13.5490   13.2020   35.3780 C.ar  200  HIS200      0.0818
    159  ND1       14.4100   14.2290   35.6980 N.ar  200  HIS200     -0.2268
    160  CD2       13.4940   12.4040   36.4700 C.ar  200  HIS200      0.1154
    161  CE1       14.8590   14.0570   36.9290 C.ar  200  HIS200      0.1986
    162  NE2       14.3170   12.9560   37.4190 N.ar  200  HIS200     -0.2212
    163  N         12.6560   15.8360   32.3670 N.am  201  LEU201     -0.1980
    164  CA        13.2240   17.1350   32.0360 C.3   201  LEU201      0.1596
    165  C         12.1760   18.2370   32.1170 C.2   201  LEU201      0.2287
    166  O         12.3740   19.2440   32.7900 O.2   201  LEU201     -0.2864
    167  CB        13.8150   17.1060   30.6270 C.3   201  LEU201      0.0297
    168  CG        15.3190   16.8840   30.4910 C.3   201  LEU201      0.0022
    169  CD1       15.6600   16.5210   29.0510 C.3   201  LEU201      0.0001
    170  CD2       16.0480   18.1420   30.9200 C.3   201  LEU201      0.0001
@<TRIPOS>BOND
     1    46    47    1
     2    47    50    1
     3    47    48    1
     4    50    51    1
     5    52    51   ar
     6    52    54   ar
     7    40    39    2
     8    51    53   ar
     9    48    49    2
    10    48    60   am
    11    54    55   ar
    12    39    38    1
    13    60    61    1
    14    53    55   ar
    15    53    56   ar
    16    68    69    1
    17    55    57   ar
    18    38    41    1
    19    38    37    1
    20    62    61    1
    21    62    63    2
    22    56    58   ar
    23    75    73    1
    24    61    64    1
    25    69    72    1
    26    69    70    1
    27    41    42    1
    28    73    72    1
    29    73    74    1
    30    57    59   ar
    31    64    65    1
    32    70    76   am
    33    70    71    2
    34    42    43    1
    35    58    59   ar
    36    76    77    1
    37    35    34    2
    38    45    43   ar
    39    78    77    1
    40    78    79    2
    41    43    44   ar
    42   101   100    1
    43    77    80    1
    44    84    85    1
    45    65    66    1
    46    65    67    1
    47    80    81    1
    48    34    33    1
    49    92    93    1
    50   100   102    1
    51   100    99    2
    52    27    26    2
    53    81    82    1
    54    96    93    1
    55    96    97    1
    56    93    94    1
    57    98    97    1
    58    98    99    1
    59    33    36    1
    60    33    32    1
    61    82    83    1
    62    85    86    1
    63    85    88    1
    64    86    87    2
    65    26    32   am
    66    26    25    1
    67    88    89    1
    68    94    95    2
    69    30    29    1
    70   169   168    1
    71    20    19    2
    72    25    24    1
    73    25    28    1
    74    29    28    1
    75    29    31    1
    76    89    90    1
    77    89    91    1
    78   106   105    2
    79   148   146    1
    80   151   150    1
    81   151   152    2
    82   149   150    1
    83    19    18    1
    84   168   167    1
    85   168   170    1
    86   167   164    1
    87    12    11    2
    88   105   104    1
    89   144   143    2
    90    18    21    1
    91    18    17    1
    92   146   147    1
    93   146   145    1
    94   104   103    1
    95   104   107    1
    96    21    23    1
    97    21    22    1
    98   142   143    1
    99   142   145    1
   100   142   141    1
   101    11    17   am
   102    11    10    1
   103   164   165    1
   104   164   163    1
   105   109   111   ar
   106   109   108   ar
   107   165   166    2
   108   163   155   am
   109   107   108    1
   110   111   113   ar
   111   153   154    1
   112   128   126    1
   113   108   110   ar
   114    10    13    1
   115    10     9    1
   116    13    14    1
   117   155   154    1
   118   155   156    2
   119   125   124    2
   120   113   112   ar
   121   129   127    1
   122   154   157    1
   123   157   158    1
   124    16    14    1
   125   127   126    1
   126   110   112   ar
   127   126   123    1
   128    14    15    1
   129   123   124    1
   130   123   122    1
   131   124   130   am
   132     4     3    2
   133   133   132    2
   134     8     7    1
   135   158   159   ar
   136   158   160   ar
   137   159   161   ar
   138   132   131    1
   139   130   131    1
   140   131   134    1
   141     3     2    1
   142   160   162   ar
   143     7     6    1
   144   137   139   ar
   145   137   135   ar
   146   139   140   ar
   147   121   120    1
   148     2     5    1
   149     2     1    1
   150   161   162   ar
   151     5     6    1
   152   135   134    1
   153   135   136   ar
   154   140   138   ar
   155   119   120    1
   156   119   118    1
   157   117   116    2
   158   136   138   ar
   159   115   118    1
   160   115   116    1
   161   115   114    1
