@<TRIPOS>MOLECULE
tmp/2qe5A00.pdb
 151 144 0 0 0
SMALL
GASTEIGER

@<TRIPOS>ATOM
      1  N          9.8330   81.3240  144.8980 N.3   193  PHE193     -0.1241
      2  CA        10.1250   80.2000  144.0080 C.3   193  PHE193      0.1605
      3  C         11.5570   79.6570  143.9760 C.2   193  PHE193      0.2264
      4  O         11.8420   78.7210  143.2400 O.2   193  PHE193     -0.2867
      5  CB         9.6710   80.5890  142.6090 C.3   193  PHE193      0.0534
      6  CG         8.2090   80.7850  142.5060 C.ar  193  PHE193     -0.0203
      7  CD1        7.6610   82.0540  142.3500 C.ar  193  PHE193     -0.0042
      8  CD2        7.3630   79.6920  142.5840 C.ar  193  PHE193     -0.0042
      9  CE1        6.2720   82.2270  142.2850 C.ar  193  PHE193     -0.0003
     10  CE2        5.9820   79.8480  142.5230 C.ar  193  PHE193     -0.0003
     11  CZ         5.4330   81.1160  142.3690 C.ar  193  PHE193     -0.0000
     12  N         12.6220   74.8090  147.6880 N.3   196  SER196     -0.1203
     13  CA        11.9090   73.5330  147.6100 C.3   196  SER196      0.2005
     14  C         11.0730   73.6210  148.8780 C.2   196  SER196      0.2460
     15  O         11.3460   74.4630  149.7290 O.2   196  SER196     -0.2732
     16  CB        12.8640   72.3570  147.7250 C.3   196  SER196      0.2103
     17  OG        13.2760   72.2520  149.0670 O.3   196  SER196     -0.2182
     18  N         10.0240   72.8010  148.9970 N.am  197  PRO197     -0.2728
     19  CA         9.1470   72.8040  150.1800 C.3   197  PRO197      0.1401
     20  C          9.9190   72.8310  151.5030 C.2   197  PRO197      0.2269
     21  O          9.5810   73.5540  152.4500 O.2   197  PRO197     -0.2865
     22  CB         8.3540   71.5180  150.0260 C.3   197  PRO197      0.0296
     23  CG         8.2650   71.3310  148.5500 C.3   197  PRO197      0.0237
     24  CD         9.5920   71.8100  147.9910 C.3   197  PRO197      0.0939
     25  N         11.4220   76.1550  152.1370 N.3   200  ARG200     -0.1245
     26  CA        10.4160   77.1200  152.4940 C.3   200  ARG200      0.1563
     27  C         10.0910   76.9520  153.9610 C.2   200  ARG200      0.2260
     28  O          9.9460   77.9520  154.6820 O.2   200  ARG200     -0.2867
     29  CB         9.1440   76.9200  151.6600 C.3   200  ARG200      0.0307
     30  CG         8.1350   78.0450  151.8330 C.3   200  ARG200      0.0489
     31  CD         6.8180   77.6590  151.2260 C.3   200  ARG200      0.2205
     32  NE         5.7670   78.6020  151.5840 N.pl3 200  ARG200     -0.0865
     33  CZ         5.5460   79.7540  150.9570 C.cat 200  ARG200      0.5346
     34  NH1        6.2980   80.1210  149.9210 N.pl3 200  ARG200      0.1354
     35  NH2        4.5730   80.5470  151.3750 N.pl3 200  ARG200      0.1354
     36  N          4.9640   84.7930  146.4460 N.3   316  ASN316     -0.1240
     37  CA         4.8580   83.8190  145.3600 C.3   316  ASN316      0.1653
     38  C          3.7130   84.3250  144.4830 C.2   316  ASN316      0.2266
     39  O          2.5600   83.9180  144.6510 O.2   316  ASN316     -0.2867
     40  CB         4.5030   82.4230  145.9020 C.3   316  ASN316      0.1155
     41  CG         5.6810   81.7040  146.5570 C.2   316  ASN316      0.2627
     42  OD1        6.1300   82.0430  147.6630 O.2   316  ASN316     -0.2716
     43  ND2        6.1770   80.6860  145.8710 N.am  316  ASN316     -0.0877
     44  N          0.0990   79.8920  150.2480 N.3   366  CYS366     -0.1221
     45  CA         0.2180   78.9340  149.1500 C.3   366  CYS366      0.1808
     46  C         -0.5670   77.7070  149.5830 C.2   366  CYS366      0.2602
     47  O         -0.1230   76.5780  149.4080 O.2   366  CYS366     -0.2717
     48  CB         1.6850   78.5660  148.8840 C.3   366  CYS366      0.0970
     49  SG         2.7360   79.9370  148.3420 S.3   366  CYS366     -0.0800
     50  N         -1.7310   77.9580  150.1750 N.am  367  SER367     -0.1938
     51  CA        -2.6210   76.9090  150.6680 C.3   367  SER367      0.2055
     52  C         -1.8800   75.8980  151.5410 C.2   367  SER367      0.2643
     53  O         -2.2170   74.7100  151.5670 O.2   367  SER367     -0.2714
     54  CB        -3.2570   76.1830  149.4850 C.3   367  SER367      0.2130
     55  OG        -3.5550   77.0980  148.4480 O.3   367  SER367     -0.2179
     56  N         -0.8660   76.3740  152.2540 N.am  368  SER368     -0.1949
     57  CA        -0.0640   75.4910  153.0930 C.3   368  SER368      0.1924
     58  C          0.2980   76.0900  154.4500 C.2   368  SER368      0.2314
     59  O          0.2930   77.3140  154.6310 O.2   368  SER368     -0.2863
     60  CB         1.2350   75.1290  152.3610 C.3   368  SER368      0.2116
     61  OG         0.9520   74.5410  151.1150 O.3   368  SER368     -0.2180
     62  N          6.0370   71.0870  155.5280 N.3   384  LEU384     -0.1245
     63  CA         4.8970   71.7910  154.9710 C.3   384  LEU384      0.1561
     64  C          3.7170   70.8780  154.6940 C.2   384  LEU384      0.2260
     65  O          3.8550   69.8930  153.9740 O.2   384  LEU384     -0.2867
     66  CB         5.2770   72.4470  153.6440 C.3   384  LEU384      0.0270
     67  CG         5.3760   73.9590  153.4650 C.3   384  LEU384      0.0019
     68  CD1        4.9950   74.2830  152.0430 C.3   384  LEU384      0.0001
     69  CD2        4.4340   74.6820  154.3980 C.3   384  LEU384      0.0001
     70  N         -0.8040   70.5080  153.9860 N.3   386  ARG386     -0.1245
     71  CA        -1.9060   71.0890  153.2560 C.3   386  ARG386      0.1563
     72  C         -3.2060   70.4010  153.6720 C.2   386  ARG386      0.2260
     73  O         -3.1840   69.3290  154.2800 O.2   386  ARG386     -0.2867
     74  CB        -1.6610   70.7400  151.7990 C.3   386  ARG386      0.0307
     75  CG        -1.8870   71.7590  150.7820 C.3   386  ARG386      0.0489
     76  CD        -2.2770   70.9790  149.5540 C.3   386  ARG386      0.2205
     77  NE        -3.6780   71.2270  149.2780 N.pl3 386  ARG386     -0.0865
     78  CZ        -4.0810   72.2000  148.4790 C.cat 386  ARG386      0.5346
     79  NH1       -3.1620   72.9620  147.8910 N.pl3 386  ARG386      0.1354
     80  NH2       -5.3790   72.4410  148.3060 N.pl3 386  ARG386      0.1354
     81  N         -1.7760   65.7180  139.0020 N.3   407  SER407     -0.1217
     82  CA        -1.4750   66.2740  140.3110 C.3   407  SER407      0.1889
     83  C         -0.9990   65.2940  141.3940 C.2   407  SER407      0.2288
     84  O         -0.1380   65.6540  142.2080 O.2   407  SER407     -0.2866
     85  CB        -2.6960   67.0490  140.8230 C.3   407  SER407      0.2089
     86  OG        -3.8820   66.2750  140.7770 O.3   407  SER407     -0.2183
     87  N          2.6050   65.2320  141.4730 N.3   410  GLY410     -0.1210
     88  CA         3.1890   66.4750  141.9190 C.3   410  GLY410      0.1956
     89  C          2.9660   66.6880  143.3980 C.2   410  GLY410      0.2611
     90  O          3.8410   67.2180  144.0800 O.2   410  GLY410     -0.2717
     91  N          1.7940   66.2860  143.8930 N.am  411  ASN411     -0.1974
     92  CA         1.4860   66.4290  145.3160 C.3   411  ASN411      0.1688
     93  C          2.4300   65.5610  146.1340 C.2   411  ASN411      0.2292
     94  O          2.8660   65.9600  147.2250 O.2   411  ASN411     -0.2864
     95  CB         0.0470   66.0100  145.6250 C.3   411  ASN411      0.1181
     96  CG        -0.9840   67.0600  145.2180 C.2   411  ASN411      0.2629
     97  OD1       -1.9450   66.7520  144.5100 O.2   411  ASN411     -0.2716
     98  ND2       -0.8050   68.2920  145.6840 N.am  411  ASN411     -0.0877
     99  N          5.7140   67.4570  146.1190 N.3   414  MET414     -0.1230
    100  CA         5.6590   68.6430  146.9650 C.3   414  MET414      0.1702
    101  C          5.3400   68.3500  148.4210 C.2   414  MET414      0.2592
    102  O          5.7130   69.1150  149.3100 O.2   414  MET414     -0.2718
    103  CB         4.6090   69.6110  146.4410 C.3   414  MET414      0.0401
    104  CG         4.9950   70.2120  145.1380 C.3   414  MET414      0.0596
    105  SD         6.6400   70.9160  145.1550 S.3   414  MET414     -0.1393
    106  CE         6.2850   72.5300  145.7780 C.3   414  MET414      0.0692
    107  N          4.6480   67.2450  148.6710 N.am  415  TYR415     -0.1976
    108  CA         4.2500   66.9190  150.0290 C.3   415  TYR415      0.1639
    109  C          4.6350   65.5400  150.5490 C.2   415  TYR415      0.2290
    110  O          3.9330   64.9820  151.3950 O.2   415  TYR415     -0.2864
    111  CB         2.7420   67.1010  150.1550 C.3   415  TYR415      0.0560
    112  CG         2.3100   68.5340  149.9890 C.ar  415  TYR415     -0.0198
    113  CD1        1.6470   68.9650  148.8390 C.ar  415  TYR415     -0.0009
    114  CD2        2.5340   69.4580  151.0100 C.ar  415  TYR415     -0.0009
    115  CE1        1.2020   70.2840  148.7220 C.ar  415  TYR415      0.0417
    116  CE2        2.0980   70.7680  150.8990 C.ar  415  TYR415      0.0417
    117  CZ         1.4320   71.1690  149.7590 C.ar  415  TYR415      0.1957
    118  OH         0.9560   72.4450  149.6850 O.3   415  TYR415     -0.2866
    119  N          3.4700   69.0850  137.1920 N.3   446  GLN446     -0.1231
    120  CA         3.9500   70.4570  137.2200 C.3   446  GLN446      0.1698
    121  C          4.4430   70.9410  138.5680 C.2   446  GLN446      0.2592
    122  O          3.8700   70.6310  139.6070 O.2   446  GLN446     -0.2718
    123  CB         2.8520   71.4250  136.7610 C.3   446  GLN446      0.0381
    124  CG         2.4610   71.3450  135.3080 C.3   446  GLN446      0.0905
    125  CD         1.4530   72.4290  134.9650 C.2   446  GLN446      0.2608
    126  OE1        1.0420   73.1960  135.8420 O.2   446  GLN446     -0.2717
    127  NE2        1.0510   72.5050  133.7020 N.am  446  GLN446     -0.0878
    128  N          5.4940   71.7440  138.5290 N.am  447  ILE447     -0.1966
    129  CA         6.0580   72.3370  139.7330 C.3   447  ILE447      0.1727
    130  C          6.2720   73.8120  139.4190 C.2   447  ILE447      0.2616
    131  O          6.8830   74.1610  138.4110 O.2   447  ILE447     -0.2715
    132  CB         7.3850   71.6460  140.1290 C.3   447  ILE447      0.0290
    133  CG1        7.1020   70.1720  140.4940 C.3   447  ILE447      0.0022
    134  CG2        8.0120   72.3710  141.3050 C.3   447  ILE447      0.0023
    135  CD1        8.3180   69.2670  140.5440 C.3   447  ILE447      0.0001
    136  N          5.7210   74.6710  140.2680 N.am  448  TYR448     -0.1960
    137  CA         5.8200   76.1110  140.0900 C.3   448  TYR448      0.1771
    138  C          5.4720   76.5350  138.6600 C.2   448  TYR448      0.2620
    139  O          6.1380   77.3790  138.0600 O.2   448  TYR448     -0.2715
    140  CB         7.2270   76.5860  140.4750 C.3   448  TYR448      0.0574
    141  CG         7.5150   76.5420  141.9710 C.ar  448  TYR448     -0.0198
    142  CD1        8.8150   76.6850  142.4540 C.ar  448  TYR448     -0.0009
    143  CD2        6.4890   76.3710  142.9000 C.ar  448  TYR448     -0.0009
    144  CE1        9.0850   76.6550  143.8170 C.ar  448  TYR448      0.0417
    145  CE2        6.7520   76.3380  144.2550 C.ar  448  TYR448      0.0417
    146  CZ         8.0460   76.4800  144.7150 C.ar  448  TYR448      0.1957
    147  OH         8.2970   76.4290  146.0710 O.3   448  TYR448     -0.2866
    148  N          4.4160   75.9360  138.1190 N.am  449  GLY449     -0.1954
    149  CA         3.9770   76.2620  136.7710 C.3   449  GLY449      0.1869
    150  C          4.6610   75.5110  135.6350 C.2   449  GLY449      0.2309
    151  O          4.0820   75.3580  134.5590 O.2   449  GLY449     -0.2863
@<TRIPOS>BOND
     1   127   125   am
     2   151   150    2
     3   125   124    1
     4   125   126    2
     5   124   123    1
     6   150   149    1
     7   123   120    1
     8   149   148    1
     9   119   120    1
    10   120   121    1
    11   139   138    2
    12   148   138   am
    13   131   130    2
    14   128   121   am
    15   128   129    1
    16   121   122    2
    17   138   137    1
    18    81    82    1
    19   130   129    1
    20   130   136   am
    21   129   132    1
    22   137   136    1
    23   137   140    1
    24   132   133    1
    25   132   134    1
    26    82    85    1
    27    82    83    1
    28   140   141    1
    29   133   135    1
    30    86    85    1
    31    83    84    2
    32    87    88    1
    33    88    89    1
    34   141   142   ar
    35   141   143   ar
    36     9     7   ar
    37     9    11   ar
    38     7     6   ar
    39    11    10   ar
    40   142   144   ar
    41     6     8   ar
    42     6     5    1
    43    10     8   ar
    44     5     2    1
    45   143   145   ar
    46     4     3    2
    47    89    91   am
    48    89    90    2
    49   144   146   ar
    50    91    92    1
    51     3     2    1
    52     2     1    1
    53   145   146   ar
    54    38    39    2
    55    38    37    1
    56    97    96    2
    57   146   147    1
    58   104   105    1
    59   104   103    1
    60   105   106    1
    61    96    95    1
    62    96    98   am
    63    92    95    1
    64    92    93    1
    65    37    40    1
    66    37    36    1
    67    43    41   am
    68    40    41    1
    69    99   100    1
    70    93    94    2
    71   103   100    1
    72    41    42    2
    73   100   101    1
    74    13    12    1
    75    13    16    1
    76    13    14    1
    77    16    17    1
    78    79    78    1
    79    24    23    1
    80    24    18    1
    81    80    78    1
    82    49    48    1
    83   101   107   am
    84   101   102    2
    85    55    54    1
    86    78    77    2
    87    23    22    1
    88   107   108    1
    89   115   113   ar
    90   115   117   ar
    91   113   112   ar
    92    14    18   am
    93    14    15    2
    94    48    45    1
    95    18    19    1
    96    45    46    1
    97    45    44    1
    98    77    76    1
    99    47    46    2
   100    54    51    1
   101    76    75    1
   102    46    50   am
   103   118   117    1
   104   117   116   ar
   105    34    33    1
   106   112   111    1
   107   112   114   ar
   108    22    19    1
   109   108   111    1
   110   108   109    1
   111    50    51    1
   112    19    20    1
   113   109   110    2
   114    51    52    1
   115    75    74    1
   116   116   114   ar
   117    33    35    1
   118    33    32    2
   119    61    60    1
   120    31    32    1
   121    31    30    1
   122    20    21    2
   123    52    53    2
   124    52    56   am
   125    29    30    1
   126    29    26    1
   127    74    71    1
   128    68    67    1
   129    25    26    1
   130    56    57    1
   131    60    57    1
   132    26    27    1
   133    57    58    1
   134    71    72    1
   135    71    70    1
   136    67    66    1
   137    67    69    1
   138    66    63    1
   139    72    73    2
   140    27    28    2
   141    65    64    2
   142    58    59    2
   143    64    63    1
   144    63    62    1
