@<TRIPOS>MOLECULE
tmp/2qe6B00.pdb
 167 159 0 0 0
SMALL
GASTEIGER

@<TRIPOS>ATOM
      1  N         -2.0520  -16.6800    8.3880 N.3    14  THR14      -0.1203
      2  CA        -0.5980  -16.6020    8.4050 C.3    14  THR14       0.1994
      3  C         -0.0340  -16.6000    6.9820 C.2    14  THR14       0.2618
      4  O         -0.6470  -17.1350    6.0630 O.2    14  THR14      -0.2717
      5  CB         0.0550  -17.7300    9.2140 C.3    14  THR14       0.1784
      6  OG1        0.1610  -18.9070    8.4030 O.3    14  THR14      -0.2211
      7  CG2       -0.7150  -17.9790   10.5210 C.3    14  THR14       0.0376
      8  N          1.1300  -15.9780    6.8060 N.am   15  ILE15      -0.1965
      9  CA         1.8180  -15.9760    5.5040 C.3    15  ILE15       0.1727
     10  C          1.9850  -17.3800    4.9490 C.2    15  ILE15       0.2616
     11  O          1.6030  -17.6500    3.8030 O.2    15  ILE15      -0.2715
     12  CB         3.1710  -15.2770    5.5280 C.3    15  ILE15       0.0290
     13  CG1        3.0230  -13.8260    6.0170 C.3    15  ILE15       0.0022
     14  CG2        3.7510  -15.2070    4.1260 C.3    15  ILE15       0.0023
     15  CD1        4.3160  -13.2470    6.5300 C.3    15  ILE15       0.0001
     16  N          2.5390  -18.2710    5.7710 N.am   16  ALA16      -0.1977
     17  CA         2.7820  -19.6470    5.3630 C.3    16  ALA16       0.1597
     18  C          1.5130  -20.2850    4.8390 C.2    16  ALA16       0.2287
     19  O          1.5380  -20.9630    3.8120 O.2    16  ALA16      -0.2864
     20  CB         3.3940  -20.5000    6.5520 C.3    16  ALA16       0.0319
     21  N          0.0330  -18.7820    1.4880 N.3    19  TYR19      -0.1241
     22  CA         0.8180  -19.2310    0.3420 C.3    19  TYR19       0.1605
     23  C          0.5060  -20.6910    0.0340 C.2    19  TYR19       0.2264
     24  O          0.3550  -21.0480   -1.1040 O.2    19  TYR19      -0.2867
     25  CB         2.2830  -19.0480    0.6670 C.3    19  TYR19       0.0534
     26  CG         3.2470  -19.3810   -0.3720 C.ar   19  TYR19      -0.0201
     27  CD1        3.5410  -18.4510   -1.3750 C.ar   19  TYR19      -0.0009
     28  CD2        3.9370  -20.5840   -0.3610 C.ar   19  TYR19      -0.0009
     29  CE1        4.4830  -18.7230   -2.3480 C.ar   19  TYR19       0.0417
     30  CE2        4.8930  -20.8700   -1.3250 C.ar   19  TYR19       0.0417
     31  CZ         5.1500  -19.9270   -2.3270 C.ar   19  TYR19       0.1957
     32  OH         6.0770  -20.1640   -3.2900 O.3    19  TYR19      -0.2866
     33  N          7.2870  -19.1950   -8.4610 N.3    52  ASN52      -0.1225
     34  CA         8.2270  -19.0950   -7.3480 C.3    52  ASN52       0.1785
     35  C          8.7100  -20.4980   -6.8880 C.2    52  ASN52       0.2597
     36  O          9.9060  -20.7350   -6.7200 O.2    52  ASN52      -0.2718
     37  CB         7.6210  -18.2820   -6.2030 C.3    52  ASN52       0.1169
     38  CG         8.6560  -17.8670   -5.1590 C.2    52  ASN52       0.2627
     39  OD1        9.6350  -17.1590   -5.4400 O.2    52  ASN52      -0.2716
     40  ND2        8.4460  -18.3250   -3.9510 N.am   52  ASN52      -0.0877
     41  N          7.7830  -21.4300   -6.7180 N.am   53  ARG53      -0.1979
     42  CA         8.1670  -22.7840   -6.4420 C.3    53  ARG53       0.1597
     43  C          9.0670  -23.3410   -7.5330 C.2    53  ARG53       0.2287
     44  O         10.0680  -23.9390   -7.2400 O.2    53  ARG53      -0.2864
     45  CB         6.9470  -23.6630   -6.2790 C.3    53  ARG53       0.0334
     46  CG         6.1330  -23.3260   -5.0880 C.3    53  ARG53       0.0492
     47  CD         6.9360  -23.2180   -3.7880 C.3    53  ARG53       0.2205
     48  NE         7.7020  -24.4290   -3.5070 N.pl3  53  ARG53      -0.0865
     49  CZ         8.3120  -24.6790   -2.3460 C.cat  53  ARG53       0.5346
     50  NH1        8.2410  -23.8140   -1.3370 N.pl3  53  ARG53       0.1354
     51  NH2        8.9810  -25.8120   -2.1880 N.pl3  53  ARG53       0.1354
     52  N         12.4980  -22.0320   -7.2960 N.3    56  LEU56      -0.1245
     53  CA        13.1040  -22.6000   -6.1040 C.3    56  LEU56       0.1561
     54  C         13.7960  -23.9080   -6.4780 C.2    56  LEU56       0.2260
     55  O         14.9670  -24.1270   -6.1080 O.2    56  LEU56      -0.2867
     56  CB        12.0550  -22.8150   -4.9960 C.3    56  LEU56       0.0270
     57  CG        12.5330  -23.4450   -3.6740 C.3    56  LEU56       0.0019
     58  CD1       11.6510  -22.9990   -2.5190 C.3    56  LEU56       0.0001
     59  CD2       12.5860  -25.0050   -3.7980 C.3    56  LEU56       0.0001
     60  N         17.3600  -22.5260    4.8020 N.3    74  ASP74      -0.1239
     61  CA        16.1450  -22.1210    4.0760 C.3    74  ASP74       0.1674
     62  C         15.2830  -21.3030    5.0170 C.2    74  ASP74       0.2266
     63  O         14.5920  -21.8280    5.8700 O.2    74  ASP74      -0.2867
     64  CB        15.4130  -23.3380    3.5350 C.3    74  ASP74       0.1410
     65  CG        14.2480  -22.9680    2.5890 C.2    74  ASP74       0.3668
     66  OD1       13.9190  -21.7490    2.4030 O.co2  74  ASP74      -0.2456
     67  OD2       13.6820  -23.9290    2.0040 O.co2  74  ASP74      -0.2456
     68  N         12.3930  -18.8130    6.2030 N.3    76  GLY76      -0.1210
     69  CA        10.9910  -18.6230    5.7890 C.3    76  GLY76       0.1956
     70  C         10.6170  -19.7070    4.8060 C.2    76  GLY76       0.2613
     71  O         10.1260  -19.4410    3.7090 O.2    76  GLY76      -0.2717
     72  N         10.7880  -20.9360    5.2330 N.am   77  SER77      -0.1938
     73  CA        10.6760  -22.0760    4.3740 C.3    77  SER77       0.2055
     74  C          9.2870  -22.3340    3.8220 C.2    77  SER77       0.2643
     75  O          9.1490  -22.9240    2.7490 O.2    77  SER77      -0.2714
     76  CB        11.1260  -23.3430    5.1250 C.3    77  SER77       0.2130
     77  OG        10.2880  -23.6500    6.2460 O.3    77  SER77      -0.2179
     78  N          8.2690  -21.9600    4.6040 N.am   78  GLY78      -0.1954
     79  CA         6.9110  -22.3190    4.3120 C.3    78  GLY78       0.1869
     80  C          6.5690  -23.7350    4.6890 C.2    78  GLY78       0.2309
     81  O          7.3980  -24.5360    5.2370 O.2    78  GLY78      -0.2863
     82  N         11.0720  -21.2660    9.9880 N.3   102  ASP102     -0.1225
     83  CA         9.8420  -20.5000    9.7440 C.3   102  ASP102      0.1805
     84  C          9.2090  -20.0440   11.0510 C.2   102  ASP102      0.2598
     85  O          9.3270  -20.7010   12.0860 O.2   102  ASP102     -0.2718
     86  CB         8.8360  -21.3190    8.9100 C.3   102  ASP102      0.1424
     87  CG         7.8980  -20.4390    8.0710 C.2   102  ASP102      0.3668
     88  OD1        6.9430  -19.8600    8.6490 O.co2 102  ASP102     -0.2456
     89  OD2        8.1140  -20.3230    6.8360 O.co2 102  ASP102     -0.2456
     90  N          8.5360  -18.9080   10.9850 N.am  103  ILE103     -0.1966
     91  CA         7.8580  -18.3280   12.1370 C.3   103  ILE103      0.1727
     92  C          6.5540  -19.0670   12.4730 C.2   103  ILE103      0.2616
     93  O          6.0870  -19.0140   13.5990 O.2   103  ILE103     -0.2715
     94  CB         7.6080  -16.8060   11.9040 C.3   103  ILE103      0.0290
     95  CG1        7.4850  -16.0420   13.2190 C.3   103  ILE103      0.0022
     96  CG2        6.4080  -16.5600   10.9880 C.3   103  ILE103      0.0023
     97  CD1        7.5660  -14.5270   13.0140 C.3   103  ILE103      0.0001
     98  N          5.9700  -19.7700   11.5020 N.am  104  ASP104     -0.1971
     99  CA         4.6480  -20.3940   11.7030 C.3   104  ASP104      0.1709
    100  C          4.8730  -21.7680   12.3330 C.2   104  ASP104      0.2293
    101  O          5.5200  -22.6120   11.7250 O.2   104  ASP104     -0.2864
    102  CB         3.9270  -20.5630   10.3540 C.3   104  ASP104      0.1436
    103  CG         2.5110  -21.1310   10.4750 C.2   104  ASP104      0.3671
    104  OD1        2.2170  -21.9120   11.4340 O.co2 104  ASP104     -0.2456
    105  OD2        1.7120  -20.8440    9.5500 O.co2 104  ASP104     -0.2456
    106  N         11.4030  -19.8790   14.2340 N.3   125  ALA125     -0.1231
    107  CA        12.1230  -18.6950   14.6550 C.3   125  ALA125      0.1694
    108  C         11.7710  -17.5580   13.7100 C.2   125  ALA125      0.2592
    109  O         11.2330  -17.7860   12.6320 O.2   125  ALA125     -0.2718
    110  CB        13.6510  -18.9610   14.6670 C.3   125  ALA125      0.0304
    111  N         12.0670  -16.3510   14.1470 N.am  126  ASP126     -0.1960
    112  CA        11.8870  -15.1380   13.3730 C.3   126  ASP126      0.1840
    113  C         13.2030  -14.7680   12.6900 C.2   126  ASP126      0.2622
    114  O         14.2210  -14.5100   13.3270 O.2   126  ASP126     -0.2715
    115  CB        11.4780  -14.0150   14.3180 C.3   126  ASP126      0.1450
    116  CG        11.0700  -12.7740   13.6120 C.2   126  ASP126      0.3671
    117  OD1       11.5110  -12.5080   12.4870 O.co2 126  ASP126     -0.2456
    118  OD2       10.2700  -12.0410   14.1920 O.co2 126  ASP126     -0.2456
    119  N         13.1370  -14.7300   11.3780 N.am  127  VAL127     -0.1963
    120  CA        14.2590  -14.4680   10.4970 C.3   127  VAL127      0.1727
    121  C         14.8760  -13.0780   10.7020 C.2   127  VAL127      0.2616
    122  O         16.0500  -12.8540   10.3700 O.2   127  VAL127     -0.2715
    123  CB        13.7680  -14.7460    9.0440 C.3   127  VAL127      0.0290
    124  CG1       14.6470  -14.1090    7.9990 C.3   127  VAL127      0.0023
    125  CG2       13.6960  -16.2510    8.8560 C.3   127  VAL127      0.0023
    126  N         14.1000  -12.1550   11.2830 N.am  128  ARG128     -0.1977
    127  CA        14.6080  -10.8250   11.6040 C.3   128  ARG128      0.1597
    128  C         15.5550  -10.7970   12.8000 C.2   128  ARG128      0.2287
    129  O         16.0430   -9.7320   13.1720 O.2   128  ARG128     -0.2864
    130  CB        13.4630   -9.8600   11.8480 C.3   128  ARG128      0.0334
    131  CG        12.6670   -9.6140   10.6020 C.3   128  ARG128      0.0492
    132  CD        11.3730   -8.9360   10.8830 C.3   128  ARG128      0.2205
    133  NE        10.6120   -9.6360   11.8990 N.pl3 128  ARG128     -0.0865
    134  CZ         9.4600   -9.1970   12.3820 C.cat 128  ARG128      0.5346
    135  NH1        8.9310   -8.0700   11.9290 N.pl3 128  ARG128      0.1354
    136  NH2        8.8360   -9.8850   13.3230 N.pl3 128  ARG128      0.1354
    137  N         14.0450  -17.2390   -0.1860 N.3   152  VAL152     -0.1231
    138  CA        13.1520  -17.4580   -1.2860 C.3   152  VAL152      0.1692
    139  C         11.7160  -17.1730   -0.8080 C.2   152  VAL152      0.2592
    140  O         11.2320  -17.6860    0.2240 O.2   152  VAL152     -0.2718
    141  CB        13.3680  -18.8570   -1.9200 C.3   152  VAL152      0.0266
    142  CG1       12.2290  -19.2130   -2.8990 C.3   152  VAL152      0.0020
    143  CG2       14.7270  -18.8950   -2.6450 C.3   152  VAL152      0.0020
    144  N         11.0810  -16.2670   -1.5200 N.am  153  GLY153     -0.1957
    145  CA         9.7050  -15.8980   -1.2760 C.3   153  GLY153      0.1869
    146  C          9.5280  -15.0750   -0.0290 C.2   153  GLY153      0.2309
    147  O          8.4390  -15.0380    0.5070 O.2   153  GLY153     -0.2863
    148  N          8.8450   -9.5040    2.9590 N.3   156  TYR156     -0.1227
    149  CA         8.3600   -9.4290    4.3440 C.3   156  TYR156      0.1736
    150  C          9.3350   -8.7110    5.2840 C.2   156  TYR156      0.2595
    151  O          9.0700   -8.5930    6.4750 O.2   156  TYR156     -0.2718
    152  CB         7.9640  -10.8280    4.9060 C.3   156  TYR156      0.0548
    153  CG         6.9250  -11.5090    4.0520 C.ar  156  TYR156     -0.0200
    154  CD1        5.6130  -10.9900    3.9300 C.ar  156  TYR156     -0.0009
    155  CD2        7.2570  -12.6180    3.2870 C.ar  156  TYR156     -0.0009
    156  CE1        4.6780  -11.5960    3.0880 C.ar  156  TYR156      0.0417
    157  CE2        6.3230  -13.2140    2.4290 C.ar  156  TYR156      0.0417
    158  CZ         5.0610  -12.7260    2.3460 C.ar  156  TYR156      0.1957
    159  OH         4.2180  -13.3410    1.4740 O.3   156  TYR156     -0.2866
    160  N         10.4760   -8.2630    4.7670 N.am  157  LEU157     -0.1980
    161  CA        11.4400   -7.4780    5.5430 C.3   157  LEU157      0.1596
    162  C         11.2530   -5.9900    5.2330 C.2   157  LEU157      0.2287
    163  O         11.4230   -5.5420    4.0940 O.2   157  LEU157     -0.2864
    164  CB        12.8640   -7.9180    5.2330 C.3   157  LEU157      0.0297
    165  CG        13.2130   -9.3880    5.5180 C.3   157  LEU157      0.0022
    166  CD1       14.6210   -9.7320    5.0140 C.3   157  LEU157      0.0001
    167  CD2       13.0640   -9.6980    7.0200 C.3   157  LEU157      0.0001
@<TRIPOS>BOND
     1    33    34    1
     2    43    44    2
     3    43    42    1
     4    34    35    1
     5    34    37    1
     6    52    53    1
     7    35    36    2
     8    35    41   am
     9    41    42    1
    10    54    55    2
    11    54    53    1
    12    42    45    1
    13    45    46    1
    14    37    38    1
    15    53    56    1
    16    39    38    2
    17    38    40   am
    18    46    47    1
    19    56    57    1
    20    59    57    1
    21    47    48    1
    22    57    58    1
    23    48    49    2
    24    32    31    1
    25   142   141    1
    26   143   141    1
    27    29    31   ar
    28    29    27   ar
    29    49    51    1
    30    49    50    1
    31    31    30   ar
    32   141   138    1
    33   144   145    1
    34   144   139   am
    35    27    26   ar
    36    30    28   ar
    37   138   139    1
    38   138   137    1
    39   145   146    1
    40    24    23    2
    41   139   140    2
    42    26    28   ar
    43    26    25    1
    44   146   147    2
    45    23    22    1
    46    22    25    1
    47    22    21    1
    48   159   158    1
    49    67    65   ar
    50   158   157   ar
    51   158   156   ar
    52    66    65   ar
    53   157   155   ar
    54    65    64    1
    55    75    74    2
    56   148   149    1
    57   156   154   ar
    58   155   153   ar
    59    64    61    1
    60    71    70    2
    61    11    10    2
    62    19    18    2
    63    74    73    1
    64    74    78   am
    65   154   153   ar
    66   153   152    1
    67    61    60    1
    68    61    62    1
    69   163   162    2
    70    14    12    1
    71    79    78    1
    72    79    80    1
    73   149   152    1
    74   149   150    1
    75    73    76    1
    76    73    72    1
    77    80    81    2
    78   160   150   am
    79   160   161    1
    80    70    72   am
    81    70    69    1
    82    18    17    1
    83    10     9    1
    84    10    16   am
    85   166   165    1
    86    62    63    2
    87    76    77    1
    88   162   161    1
    89   164   165    1
    90   164   161    1
    91   150   151    2
    92    17    16    1
    93    17    20    1
    94     9    12    1
    95     9     8    1
    96   165   167    1
    97    12    13    1
    98    69    68    1
    99    13    15    1
   100     4     3    2
   101     8     3   am
   102    89    87   ar
   103     3     2    1
   104   124   123    1
   105    87    88   ar
   106    87    86    1
   107     1     2    1
   108     6     5    1
   109     2     5    1
   110   125   123    1
   111    86    83    1
   112   123   120    1
   113     5     7    1
   114   105   103   ar
   115    83    82    1
   116    83    84    1
   117   102   103    1
   118   102    99    1
   119   122   121    2
   120   103   104   ar
   121   120   121    1
   122   120   119    1
   123   131   132    1
   124   131   130    1
   125   121   126   am
   126   132   133    1
   127    90    84   am
   128    90    91    1
   129    96    94    1
   130    84    85    2
   131   126   127    1
   132   119   113   am
   133    98    99    1
   134    98    92   am
   135   127   130    1
   136   127   128    1
   137    99   100    1
   138   101   100    2
   139   133   134    2
   140    94    91    1
   141    94    95    1
   142   135   134    1
   143    91    92    1
   144   134   136    1
   145    92    93    2
   146   117   116   ar
   147   109   108    2
   148   113   114    2
   149   113   112    1
   150   128   129    2
   151    97    95    1
   152   112   111    1
   153   112   115    1
   154   116   118   ar
   155   116   115    1
   156   108   111   am
   157   108   107    1
   158   106   107    1
   159   107   110    1
