@<TRIPOS>MOLECULE
tmp/2qe6B03.pdb
 108 101 0 0 0
SMALL
GASTEIGER

@<TRIPOS>ATOM
      1  N          7.7830  -21.4300   -6.7180 N.3    53  ARG53      -0.1245
      2  CA         8.1670  -22.7840   -6.4420 C.3    53  ARG53       0.1563
      3  C          9.0670  -23.3410   -7.5330 C.2    53  ARG53       0.2260
      4  O         10.0680  -23.9390   -7.2400 O.2    53  ARG53      -0.2867
      5  CB         6.9470  -23.6630   -6.2790 C.3    53  ARG53       0.0307
      6  CG         6.1330  -23.3260   -5.0880 C.3    53  ARG53       0.0489
      7  CD         6.9360  -23.2180   -3.7880 C.3    53  ARG53       0.2205
      8  NE         7.7020  -24.4290   -3.5070 N.pl3  53  ARG53      -0.0865
      9  CZ         8.3120  -24.6790   -2.3460 C.cat  53  ARG53       0.5346
     10  NH1        8.2410  -23.8140   -1.3370 N.pl3  53  ARG53       0.1354
     11  NH2        8.9810  -25.8120   -2.1880 N.pl3  53  ARG53       0.1354
     12  N         17.3600  -22.5260    4.8020 N.3    74  ASP74      -0.1239
     13  CA        16.1450  -22.1210    4.0760 C.3    74  ASP74       0.1674
     14  C         15.2830  -21.3030    5.0170 C.2    74  ASP74       0.2266
     15  O         14.5920  -21.8280    5.8700 O.2    74  ASP74      -0.2867
     16  CB        15.4130  -23.3380    3.5350 C.3    74  ASP74       0.1410
     17  CG        14.2480  -22.9680    2.5890 C.2    74  ASP74       0.3668
     18  OD1       13.9190  -21.7490    2.4030 O.co2  74  ASP74      -0.2456
     19  OD2       13.6820  -23.9290    2.0040 O.co2  74  ASP74      -0.2456
     20  N         10.7880  -20.9360    5.2330 N.3    77  SER77      -0.1202
     21  CA        10.6760  -22.0760    4.3740 C.3    77  SER77       0.2020
     22  C          9.2870  -22.3340    3.8220 C.2    77  SER77       0.2619
     23  O          9.1490  -22.9240    2.7490 O.2    77  SER77      -0.2717
     24  CB        11.1260  -23.3430    5.1250 C.3    77  SER77       0.2103
     25  OG        10.2880  -23.6500    6.2460 O.3    77  SER77      -0.2182
     26  N          8.2690  -21.9600    4.6040 N.am   78  GLY78      -0.1942
     27  CA         6.9110  -22.3190    4.3120 C.3    78  GLY78       0.2014
     28  C          6.5690  -23.7350    4.6890 C.2    78  GLY78       0.2639
     29  O          7.3980  -24.5360    5.2370 O.2    78  GLY78      -0.2714
     30  N          5.3310  -24.0690    4.3560 N.am   79  LEU79      -0.1963
     31  CA         4.7840  -25.3990    4.6100 C.3    79  LEU79       0.1713
     32  C          5.1540  -26.3420    3.4520 C.2    79  LEU79       0.2458
     33  O          5.5470  -25.8920    2.3760 O.2    79  LEU79      -0.2730
     34  CB         3.2710  -25.2820    4.8550 C.3    79  LEU79       0.0310
     35  CG         2.9270  -24.5080    6.1590 C.3    79  LEU79       0.0022
     36  CD1        1.5760  -23.8420    6.1310 C.3    79  LEU79       0.0001
     37  CD2        2.9970  -25.4070    7.3820 C.3    79  LEU79       0.0001
     38  N          5.0760  -27.6500    3.6850 N.am   80  PRO80      -0.2727
     39  CA         5.5890  -28.5970    2.7050 C.3    80  PRO80       0.1402
     40  C          4.7890  -28.6190    1.4150 C.2    80  PRO80       0.2269
     41  O          3.5560  -28.5170    1.4460 O.2    80  PRO80      -0.2865
     42  CB         5.5240  -29.9440    3.4210 C.3    80  PRO80       0.0296
     43  CG         4.5550  -29.7980    4.4900 C.3    80  PRO80       0.0237
     44  CD         4.5370  -28.3270    4.8760 C.3    80  PRO80       0.0939
     45  N         10.1750  -30.2180   -2.0690 N.3    84  ASN84      -0.1240
     46  CA        10.8160  -29.3770   -1.0750 C.3    84  ASN84       0.1653
     47  C         12.3320  -29.2390   -1.3030 C.2    84  ASN84       0.2266
     48  O         12.9730  -30.0780   -1.9450 O.2    84  ASN84      -0.2867
     49  CB        10.5220  -29.9350    0.3060 C.3    84  ASN84       0.1155
     50  CG         9.0440  -29.8880    0.6390 C.2    84  ASN84       0.2627
     51  OD1        8.4340  -28.8180    0.5840 O.2    84  ASN84      -0.2716
     52  ND2        8.4630  -31.0370    0.9970 N.am   84  ASN84      -0.0877
     53  N         15.0290  -29.7970    0.3460 N.3    86  HIS86      -0.1241
     54  CA        15.8800  -30.9370    0.6370 C.3    86  HIS86       0.1621
     55  C         15.7140  -32.0980   -0.3090 C.2    86  HIS86       0.2264
     56  O         16.6540  -32.8730   -0.4980 O.2    86  HIS86      -0.2867
     57  CB        15.6810  -31.4110    2.0760 C.3    86  HIS86       0.0745
     58  CG        14.4760  -32.2720    2.3010 C.ar   86  HIS86       0.0817
     59  ND1       13.2150  -31.7560    2.4680 N.ar   86  HIS86      -0.2268
     60  CD2       14.3540  -33.6130    2.4400 C.ar   86  HIS86       0.1154
     61  CE1       12.3610  -32.7450    2.6800 C.ar   86  HIS86       0.1986
     62  NE2       13.0300  -33.8820    2.6760 N.ar   86  HIS86      -0.2212
     63  N         15.6270  -25.8400    7.7670 N.3   100  TYR100     -0.1241
     64  CA        14.4710  -25.0460    7.4350 C.3   100  TYR100      0.1605
     65  C         14.0870  -24.2220    8.6460 C.2   100  TYR100      0.2264
     66  O         14.1370  -24.7090    9.7740 O.2   100  TYR100     -0.2867
     67  CB        13.3040  -25.9590    7.1320 C.3   100  TYR100      0.0534
     68  CG        13.3450  -26.8080    5.8750 C.ar  100  TYR100     -0.0201
     69  CD1       13.1450  -26.2520    4.6310 C.ar  100  TYR100     -0.0009
     70  CD2       13.4550  -28.1930    5.9540 C.ar  100  TYR100     -0.0009
     71  CE1       13.0940  -27.0400    3.4980 C.ar  100  TYR100      0.0417
     72  CE2       13.4360  -28.9640    4.8300 C.ar  100  TYR100      0.0417
     73  CZ        13.2220  -28.3870    3.6100 C.ar  100  TYR100      0.1957
     74  OH        13.1680  -29.1770    2.4920 O.3   100  TYR100     -0.2866
     75  N          4.7030  -25.2620   10.5180 N.3   106  VAL106     -0.1245
     76  CA         5.8840  -25.7410    9.7560 C.3   106  VAL106      0.1561
     77  C          6.6680  -26.7710   10.5870 C.2   106  VAL106      0.2260
     78  O          6.9900  -27.8540   10.1070 O.2   106  VAL106     -0.2867
     79  CB         6.7980  -24.5880    9.2870 C.3   106  VAL106      0.0252
     80  CG1        8.0910  -25.1300    8.5590 C.3   106  VAL106      0.0019
     81  CG2        6.0280  -23.6330    8.3710 C.3   106  VAL106      0.0019
     82  N          6.6090  -30.5530    9.5710 N.3   110  GLY110     -0.1225
     83  CA         7.9620  -30.8990    9.1380 C.3   110  GLY110      0.1811
     84  C          8.6040  -31.9660   10.0060 C.2   110  GLY110      0.2280
     85  O          9.2960  -32.8410    9.5000 O.2   110  GLY110     -0.2866
     86  N          7.5700  -35.3000    8.8350 N.3   113  LEU113     -0.1231
     87  CA         8.1000  -35.5460    7.4880 C.3   113  LEU113      0.1693
     88  C          9.5770  -35.9070    7.5580 C.2   113  LEU113      0.2591
     89  O         10.0340  -36.7900    6.8270 O.2   113  LEU113     -0.2718
     90  CB         7.8760  -34.3350    6.5580 C.3   113  LEU113      0.0284
     91  CG         6.4300  -34.1040    6.0620 C.3   113  LEU113      0.0019
     92  CD1        6.2530  -32.8890    5.1370 C.3   113  LEU113      0.0001
     93  CD2        5.9130  -35.3670    5.3240 C.3   113  LEU113      0.0001
     94  N         10.3150  -35.2510    8.4580 N.am  114  LEU114     -0.1980
     95  CA        11.7820  -35.3700    8.5130 C.3   114  LEU114      0.1596
     96  C         12.3170  -36.3000    9.5930 C.2   114  LEU114      0.2287
     97  O         13.5200  -36.3470    9.8050 O.2   114  LEU114     -0.2864
     98  CB        12.3940  -33.9950    8.7470 C.3   114  LEU114      0.0297
     99  CG        12.1020  -32.9550    7.6810 C.3   114  LEU114      0.0022
    100  CD1       12.8180  -31.7280    8.0600 C.3   114  LEU114      0.0001
    101  CD2       12.5600  -33.4990    6.3470 C.3   114  LEU114      0.0001
    102  N         14.3130  -28.7630   11.0380 N.3   122  VAL122     -0.1245
    103  CA        13.3750  -27.6740   10.9900 C.3   122  VAL122      0.1561
    104  C         13.1890  -27.1020   12.3980 C.2   122  VAL122      0.2260
    105  O         13.1380  -27.8180   13.3860 O.2   122  VAL122     -0.2867
    106  CB        11.9880  -28.1230   10.3270 C.3   122  VAL122      0.0252
    107  CG1       11.4110  -29.3130   11.0200 C.3   122  VAL122      0.0019
    108  CG2       10.9770  -26.9920   10.2640 C.3   122  VAL122      0.0019
@<TRIPOS>BOND
     1     3     4    2
     2     3     2    1
     3     1     2    1
     4     2     5    1
     5     5     6    1
     6     6     7    1
     7     7     8    1
     8     8     9    2
     9     9    11    1
    10     9    10    1
    11    45    46    1
    12    48    47    2
    13    47    46    1
    14    46    49    1
    15    56    55    2
    16    55    54    1
    17    49    50    1
    18    53    54    1
    19    51    50    2
    20    54    57    1
    21    50    52   am
    22    40    41    2
    23    40    39    1
    24    19    17   ar
    25    57    58    1
    26    58    60   ar
    27    58    59   ar
    28    33    32    2
    29    18    17   ar
    30    60    62   ar
    31    59    61   ar
    32    74    73    1
    33    17    16    1
    34    62    61   ar
    35    39    42    1
    36    39    38    1
    37    23    22    2
    38    42    43    1
    39    32    38   am
    40    32    31    1
    41    71    73   ar
    42    71    69   ar
    43    16    13    1
    44    73    72   ar
    45    38    44    1
    46    22    21    1
    47    22    26   am
    48    13    12    1
    49    13    14    1
    50    27    26    1
    51    27    28    1
    52    30    31    1
    53    30    28   am
    54    21    24    1
    55    21    20    1
    56    43    44    1
    57    31    34    1
    58    69    68   ar
    59    28    29    2
    60    72    70   ar
    61    34    35    1
    62    14    15    2
    63    24    25    1
    64    92    91    1
    65    93    91    1
    66    68    70   ar
    67    68    67    1
    68    91    90    1
    69    36    35    1
    70    35    37    1
    71   101    99    1
    72    90    87    1
    73    89    88    2
    74    67    64    1
    75    64    63    1
    76    64    65    1
    77    87    88    1
    78    87    86    1
    79    88    94   am
    80    99   100    1
    81    99    98    1
    82    81    79    1
    83    94    95    1
    84    95    98    1
    85    95    96    1
    86    80    79    1
    87    65    66    2
    88    83    82    1
    89    83    84    1
    90    79    76    1
    91    85    84    2
    92    96    97    2
    93    76    75    1
    94    76    77    1
    95    78    77    2
    96   108   106    1
    97   106   103    1
    98   106   107    1
    99   103   102    1
   100   103   104    1
   101   104   105    2
