@<TRIPOS>MOLECULE
tmp/2qe6B01.pdb
 121 113 0 0 0
SMALL
GASTEIGER

@<TRIPOS>ATOM
      1  N          0.0330  -18.7820    1.4880 N.3    19  TYR19      -0.1241
      2  CA         0.8180  -19.2310    0.3420 C.3    19  TYR19       0.1605
      3  C          0.5060  -20.6910    0.0340 C.2    19  TYR19       0.2264
      4  O          0.3550  -21.0480   -1.1040 O.2    19  TYR19      -0.2867
      5  CB         2.2830  -19.0480    0.6670 C.3    19  TYR19       0.0534
      6  CG         3.2470  -19.3810   -0.3720 C.ar   19  TYR19      -0.0201
      7  CD1        3.5410  -18.4510   -1.3750 C.ar   19  TYR19      -0.0009
      8  CD2        3.9370  -20.5840   -0.3610 C.ar   19  TYR19      -0.0009
      9  CE1        4.4830  -18.7230   -2.3480 C.ar   19  TYR19       0.0417
     10  CE2        4.8930  -20.8700   -1.3250 C.ar   19  TYR19       0.0417
     11  CZ         5.1500  -19.9270   -2.3270 C.ar   19  TYR19       0.1957
     12  OH         6.0770  -20.1640   -3.2900 O.3    19  TYR19      -0.2866
     13  N         -2.7180  -20.7600   -1.7700 N.3    22  LEU22      -0.1245
     14  CA        -2.4640  -20.4210   -3.1720 C.3    22  LEU22       0.1561
     15  C         -1.9200  -21.5760   -4.0100 C.2    22  LEU22       0.2260
     16  O         -2.2890  -21.7170   -5.1640 O.2    22  LEU22      -0.2867
     17  CB        -1.4860  -19.2740   -3.2830 C.3    22  LEU22       0.0270
     18  CG        -1.9970  -17.8970   -2.8960 C.3    22  LEU22       0.0019
     19  CD1       -0.7700  -16.9430   -3.0130 C.3    22  LEU22       0.0001
     20  CD2       -3.2010  -17.5510   -3.8220 C.3    22  LEU22       0.0001
     21  N         -1.9660  -14.1770   -9.4310 N.3    45  LEU45      -0.1245
     22  CA        -1.3930  -14.4810   -8.1130 C.3    45  LEU45       0.1561
     23  C         -1.0180  -15.9540   -7.9010 C.2    45  LEU45       0.2260
     24  O          0.1140  -16.2400   -7.4970 O.2    45  LEU45      -0.2867
     25  CB        -2.2830  -13.9870   -6.9860 C.3    45  LEU45       0.0270
     26  CG        -1.6950  -14.0420   -5.5740 C.3    45  LEU45       0.0019
     27  CD1       -0.3700  -13.3090   -5.4930 C.3    45  LEU45       0.0001
     28  CD2       -2.7210  -13.5310   -4.5850 C.3    45  LEU45       0.0001
     29  N          1.9540  -16.7830  -10.0170 N.3    48  SER48      -0.1202
     30  CA         3.1840  -16.2190   -9.4540 C.3    48  SER48       0.2020
     31  C          3.7490  -17.0960   -8.3260 C.2    48  SER48       0.2618
     32  O          4.9710  -17.2450   -8.2010 O.2    48  SER48      -0.2717
     33  CB         2.9860  -14.7760   -8.9470 C.3    48  SER48       0.2103
     34  OG         2.3490  -14.7690   -7.6780 O.3    48  SER48      -0.2182
     35  N          2.8790  -17.7040   -7.5150 N.am   49  ALA49      -0.1979
     36  CA         3.3430  -18.5970   -6.4550 C.3    49  ALA49       0.1597
     37  C          3.9240  -19.8900   -7.0400 C.2    49  ALA49       0.2287
     38  O          4.9680  -20.4000   -6.5750 O.2    49  ALA49      -0.2864
     39  CB         2.1890  -18.8830   -5.4180 C.3    49  ALA49       0.0319
     40  N          7.2870  -19.1950   -8.4610 N.3    52  ASN52      -0.1240
     41  CA         8.2270  -19.0950   -7.3480 C.3    52  ASN52       0.1653
     42  C          8.7100  -20.4980   -6.8880 C.2    52  ASN52       0.2266
     43  O          9.9060  -20.7350   -6.7200 O.2    52  ASN52      -0.2867
     44  CB         7.6210  -18.2820   -6.2030 C.3    52  ASN52       0.1155
     45  CG         8.6560  -17.8670   -5.1590 C.2    52  ASN52       0.2627
     46  OD1        9.6350  -17.1590   -5.4400 O.2    52  ASN52      -0.2716
     47  ND2        8.4460  -18.3250   -3.9510 N.am   52  ASN52      -0.0877
     48  N         11.0810  -16.2670   -1.5200 N.3   153  GLY153     -0.1225
     49  CA         9.7050  -15.8980   -1.2760 C.3   153  GLY153      0.1811
     50  C          9.5280  -15.0750   -0.0290 C.2   153  GLY153      0.2280
     51  O          8.4390  -15.0380    0.5070 O.2   153  GLY153     -0.2866
     52  N         10.2780   -9.6120    0.5390 N.3   155  HIS155     -0.1226
     53  CA         9.2030   -8.6030    0.6660 C.3   155  HIS155      0.1752
     54  C          8.4820   -8.6040    2.0300 C.2   155  HIS155      0.2596
     55  O          7.5860   -7.7740    2.2390 O.2   155  HIS155     -0.2718
     56  CB         8.2010   -8.7560   -0.5000 C.3   155  HIS155      0.0759
     57  CG         7.6770  -10.1490   -0.6650 C.ar  155  HIS155      0.0818
     58  ND1        8.3110  -11.1040   -1.4450 N.ar  155  HIS155     -0.2268
     59  CD2        6.6050  -10.7680   -0.1090 C.ar  155  HIS155      0.1154
     60  CE1        7.6380  -12.2440   -1.3730 C.ar  155  HIS155      0.1986
     61  NE2        6.6070  -12.0700   -0.5570 N.ar  155  HIS155     -0.2212
     62  N          8.8450   -9.5040    2.9590 N.am  156  TYR156     -0.1976
     63  CA         8.3600   -9.4290    4.3440 C.3   156  TYR156      0.1639
     64  C          9.3350   -8.7110    5.2840 C.2   156  TYR156      0.2290
     65  O          9.0700   -8.5930    6.4750 O.2   156  TYR156     -0.2864
     66  CB         7.9640  -10.8280    4.9060 C.3   156  TYR156      0.0560
     67  CG         6.9250  -11.5090    4.0520 C.ar  156  TYR156     -0.0198
     68  CD1        5.6130  -10.9900    3.9300 C.ar  156  TYR156     -0.0009
     69  CD2        7.2570  -12.6180    3.2870 C.ar  156  TYR156     -0.0009
     70  CE1        4.6780  -11.5960    3.0880 C.ar  156  TYR156      0.0417
     71  CE2        6.3230  -13.2140    2.4290 C.ar  156  TYR156      0.0417
     72  CZ         5.0610  -12.7260    2.3460 C.ar  156  TYR156      0.1957
     73  OH         4.2180  -13.3410    1.4740 O.3   156  TYR156     -0.2866
     74  N         14.0920  -14.5430   -3.5590 N.3   181  THR181     -0.1203
     75  CA        13.0850  -13.9870   -4.4690 C.3   181  THR181      0.1994
     76  C         12.2290  -12.9410   -3.7570 C.2   181  THR181      0.2619
     77  O         12.2210  -12.8690   -2.5280 O.2   181  THR181     -0.2717
     78  CB        12.2130  -15.0600   -5.1010 C.3   181  THR181      0.1784
     79  OG1       11.2760  -15.5770   -4.1520 O.3   181  THR181     -0.2211
     80  CG2       13.0800  -16.1670   -5.6210 C.3   181  THR181      0.0376
     81  N         11.5470  -12.1030   -4.5330 N.am  182  SER182     -0.1937
     82  CA        10.8470  -10.9630   -3.9780 C.3   182  SER182      0.2055
     83  C          9.7820  -10.4790   -4.9290 C.2   182  SER182      0.2642
     84  O          9.9660  -10.4360   -6.1500 O.2   182  SER182     -0.2714
     85  CB        11.7980   -9.8050   -3.7500 C.3   182  SER182      0.2130
     86  OG        11.1310   -8.6880   -3.1660 O.3   182  SER182     -0.2179
     87  N          8.6710  -10.0950   -4.3430 N.am  183  LEU183     -0.1977
     88  CA         7.7080   -9.2910   -5.0090 C.3   183  LEU183      0.1596
     89  C          8.4510   -8.0750   -5.5110 C.2   183  LEU183      0.2287
     90  O          9.2670   -7.5040   -4.7730 O.2   183  LEU183     -0.2864
     91  CB         6.6140   -8.9190   -4.0120 C.3   183  LEU183      0.0297
     92  CG         5.5170   -7.9580   -4.4600 C.3   183  LEU183      0.0022
     93  CD1        4.6560   -8.6310   -5.5410 C.3   183  LEU183      0.0001
     94  CD2        4.7060   -7.5690   -3.2330 C.3   183  LEU183      0.0001
     95  N         -0.7620   -5.5410   -4.5480 N.3   194  LEU194     -0.1245
     96  CA        -0.5170   -6.8170   -3.8330 C.3   194  LEU194      0.1561
     97  C          0.2890   -6.5720   -2.5830 C.2   194  LEU194      0.2260
     98  O          0.0760   -7.2100   -1.5690 O.2   194  LEU194     -0.2867
     99  CB         0.2120   -7.8590   -4.7010 C.3   194  LEU194      0.0270
    100  CG         0.6490   -9.1960   -4.0480 C.3   194  LEU194      0.0019
    101  CD1       -0.5090   -9.9100   -3.3060 C.3   194  LEU194      0.0001
    102  CD2        1.3880  -10.1630   -5.0510 C.3   194  LEU194      0.0001
    103  N         10.9300  -14.3520  -12.1520 N.3   230  THR230     -0.1218
    104  CA        11.2010  -15.7200  -11.7260 C.3   230  THR230      0.1862
    105  C         11.1950  -16.7520  -12.8700 C.2   230  THR230      0.2287
    106  O         12.0790  -17.6000  -12.9200 O.2   230  THR230     -0.2866
    107  CB        10.2600  -16.1490  -10.5800 C.3   230  THR230      0.1770
    108  OG1        8.8770  -16.0370  -10.9780 O.3   230  THR230     -0.2211
    109  CG2       10.5130  -15.2940   -9.3690 C.3   230  THR230      0.0375
    110  N          5.1740  -10.7090  -11.2660 N.3   250  LEU250     -0.1231
    111  CA         4.9660  -10.2520   -9.8880 C.3   250  LEU250      0.1693
    112  C          6.2340  -10.3910   -9.0160 C.2   250  LEU250      0.2592
    113  O          6.3720   -9.7180   -8.0060 O.2   250  LEU250     -0.2718
    114  CB         3.7710  -10.9830   -9.2440 C.3   250  LEU250      0.0284
    115  CG         2.3900  -10.4930   -9.6860 C.3   250  LEU250      0.0019
    116  CD1        1.2890  -11.4460   -9.1680 C.3   250  LEU250      0.0001
    117  CD2        2.1600   -9.0500   -9.2250 C.3   250  LEU250      0.0001
    118  N          7.1230  -11.2830   -9.4260 N.am  251  GLY251     -0.1957
    119  CA         8.3040  -11.6610   -8.6400 C.3   251  GLY251      0.1869
    120  C          9.5750  -11.7710   -9.4430 C.2   251  GLY251      0.2309
    121  O          9.5410  -12.1530  -10.6280 O.2   251  GLY251     -0.2863
@<TRIPOS>BOND
     1   106   105    2
     2   105   104    1
     3   103   104    1
     4   104   107    1
     5   110   111    1
     6   108   107    1
     7   121   120    2
     8   107   109    1
     9    29    30    1
    10   111   114    1
    11   111   112    1
    12   115   114    1
    13   115   117    1
    14   115   116    1
    15    30    33    1
    16    30    31    1
    17   120   119    1
    18    21    22    1
    19   118   112   am
    20   118   119    1
    21   112   113    2
    22    33    34    1
    23    40    41    1
    24    31    32    2
    25    31    35   am
    26    22    23    1
    27    22    25    1
    28    23    24    2
    29    35    36    1
    30    41    42    1
    31    41    44    1
    32    37    38    2
    33    37    36    1
    34    25    26    1
    35    42    43    2
    36    36    39    1
    37    44    45    1
    38    84    83    2
    39    80    78    1
    40    26    27    1
    41    26    28    1
    42    93    92    1
    43    89    88    1
    44    89    90    2
    45    46    45    2
    46    16    15    2
    47    45    47   am
    48    78    75    1
    49    78    79    1
    50   102   100    1
    51    88    87    1
    52    88    91    1
    53    83    87   am
    54    83    82    1
    55    99   100    1
    56    99    96    1
    57    95    96    1
    58    81    82    1
    59    81    76   am
    60    75    76    1
    61    75    74    1
    62    92    91    1
    63    92    94    1
    64   100   101    1
    65    15    14    1
    66    82    85    1
    67    96    97    1
    68    20    18    1
    69    76    77    2
    70    85    86    1
    71    12    11    1
    72    17    14    1
    73    17    18    1
    74    14    13    1
    75    19    18    1
    76    97    98    2
    77     9    11   ar
    78     9     7   ar
    79    11    10   ar
    80    48    49    1
    81    58    60   ar
    82    58    57   ar
    83     7     6   ar
    84    60    61   ar
    85    10     8   ar
    86    49    50    1
    87     4     3    2
    88    57    56    1
    89    57    59   ar
    90    61    59   ar
    91    56    53    1
    92     6     8   ar
    93     6     5    1
    94    50    51    2
    95     3     2    1
    96     2     5    1
    97     2     1    1
    98    52    53    1
    99    53    54    1
   100    73    72    1
   101    54    55    2
   102    54    62   am
   103    72    71   ar
   104    72    70   ar
   105    71    69   ar
   106    62    63    1
   107    70    68   ar
   108    69    67   ar
   109    68    67   ar
   110    67    66    1
   111    63    66    1
   112    63    64    1
   113    64    65    2
