@<TRIPOS>MOLECULE
tmp/2qe6B02.pdb
 114 107 0 0 0
SMALL
GASTEIGER

@<TRIPOS>ATOM
      1  N          1.1300  -15.9780    6.8060 N.3    15  ILE15      -0.1245
      2  CA         1.8180  -15.9760    5.5040 C.3    15  ILE15       0.1561
      3  C          1.9850  -17.3800    4.9490 C.2    15  ILE15       0.2260
      4  O          1.6030  -17.6500    3.8030 O.2    15  ILE15      -0.2867
      5  CB         3.1710  -15.2770    5.5280 C.3    15  ILE15       0.0252
      6  CG1        3.0230  -13.8260    6.0170 C.3    15  ILE15       0.0019
      7  CG2        3.7510  -15.2070    4.1260 C.3    15  ILE15       0.0019
      8  CD1        4.3160  -13.2470    6.5300 C.3    15  ILE15       0.0001
      9  N         -1.4080  -18.9090    3.9200 N.3    18  VAL18      -0.1231
     10  CA        -2.0010  -18.2870    2.7520 C.3    18  VAL18       0.1692
     11  C         -1.2910  -18.7300    1.4710 C.2    18  VAL18       0.2592
     12  O         -1.9260  -19.0620    0.5070 O.2    18  VAL18      -0.2718
     13  CB        -2.0360  -16.7610    2.8510 C.3    18  VAL18       0.0266
     14  CG1       -2.5410  -16.2280    1.5350 C.3    18  VAL18       0.0020
     15  CG2       -2.9280  -16.3100    4.0650 C.3    18  VAL18       0.0020
     16  N          0.0330  -18.7820    1.4880 N.am   19  TYR19      -0.1976
     17  CA         0.8180  -19.2310    0.3420 C.3    19  TYR19       0.1639
     18  C          0.5060  -20.6910    0.0340 C.2    19  TYR19       0.2290
     19  O          0.3550  -21.0480   -1.1040 O.2    19  TYR19      -0.2864
     20  CB         2.2830  -19.0480    0.6670 C.3    19  TYR19       0.0560
     21  CG         3.2470  -19.3810   -0.3720 C.ar   19  TYR19      -0.0198
     22  CD1        3.5410  -18.4510   -1.3750 C.ar   19  TYR19      -0.0009
     23  CD2        3.9370  -20.5840   -0.3610 C.ar   19  TYR19      -0.0009
     24  CE1        4.4830  -18.7230   -2.3480 C.ar   19  TYR19       0.0417
     25  CE2        4.8930  -20.8700   -1.3250 C.ar   19  TYR19       0.0417
     26  CZ         5.1500  -19.9270   -2.3270 C.ar   19  TYR19       0.1957
     27  OH         6.0770  -20.1640   -3.2900 O.3    19  TYR19      -0.2866
     28  N         -2.7180  -20.7600   -1.7700 N.3    22  LEU22      -0.1245
     29  CA        -2.4640  -20.4210   -3.1720 C.3    22  LEU22       0.1561
     30  C         -1.9200  -21.5760   -4.0100 C.2    22  LEU22       0.2260
     31  O         -2.2890  -21.7170   -5.1640 O.2    22  LEU22      -0.2867
     32  CB        -1.4860  -19.2740   -3.2830 C.3    22  LEU22       0.0270
     33  CG        -1.9970  -17.8970   -2.8960 C.3    22  LEU22       0.0019
     34  CD1       -0.7700  -16.9430   -3.0130 C.3    22  LEU22       0.0001
     35  CD2       -3.2010  -17.5510   -3.8220 C.3    22  LEU22       0.0001
     36  N         -8.2460  -14.9610    2.7790 N.3    35  LEU35      -0.1231
     37  CA        -7.3090  -13.9670    2.2820 C.3    35  LEU35       0.1693
     38  C         -6.7560  -14.3790    0.9050 C.2    35  LEU35       0.2591
     39  O         -6.5640  -13.5350    0.0520 O.2    35  LEU35      -0.2718
     40  CB        -6.1720  -13.7520    3.2640 C.3    35  LEU35       0.0284
     41  CG        -5.1380  -12.6950    2.8980 C.3    35  LEU35       0.0019
     42  CD1       -5.8080  -11.3230    2.6490 C.3    35  LEU35       0.0001
     43  CD2       -4.1100  -12.5580    4.0280 C.3    35  LEU35       0.0001
     44  N         -6.5090  -15.6730    0.6830 N.am   36  ALA36      -0.1980
     45  CA        -5.9620  -16.1100   -0.5800 C.3    36  ALA36       0.1597
     46  C         -7.0060  -15.8210   -1.6870 C.2    36  ALA36       0.2287
     47  O         -6.6640  -15.3130   -2.7490 O.2    36  ALA36      -0.2864
     48  CB        -5.6150  -17.5900   -0.5390 C.3    36  ALA36       0.0319
     49  N         -7.2870  -12.0040   -2.3320 N.3    39  ALA39      -0.1245
     50  CA        -6.1060  -11.5590   -3.0470 C.3    39  ALA39       0.1562
     51  C         -6.1920  -11.9890   -4.5290 C.2    39  ALA39       0.2260
     52  O         -5.9170  -11.1860   -5.4160 O.2    39  ALA39      -0.2867
     53  CB        -4.8390  -12.0990   -2.3720 C.3    39  ALA39       0.0290
     54  N         -1.9660  -14.1770   -9.4310 N.3    45  LEU45      -0.1245
     55  CA        -1.3930  -14.4810   -8.1130 C.3    45  LEU45       0.1561
     56  C         -1.0180  -15.9540   -7.9010 C.2    45  LEU45       0.2260
     57  O          0.1140  -16.2400   -7.4970 O.2    45  LEU45      -0.2867
     58  CB        -2.2830  -13.9870   -6.9860 C.3    45  LEU45       0.0270
     59  CG        -1.6950  -14.0420   -5.5740 C.3    45  LEU45       0.0019
     60  CD1       -0.3700  -13.3090   -5.4930 C.3    45  LEU45       0.0001
     61  CD2       -2.7210  -13.5310   -4.5850 C.3    45  LEU45       0.0001
     62  N         10.2780   -9.6120    0.5390 N.3   155  HIS155     -0.1226
     63  CA         9.2030   -8.6030    0.6660 C.3   155  HIS155      0.1752
     64  C          8.4820   -8.6040    2.0300 C.2   155  HIS155      0.2596
     65  O          7.5860   -7.7740    2.2390 O.2   155  HIS155     -0.2718
     66  CB         8.2010   -8.7560   -0.5000 C.3   155  HIS155      0.0759
     67  CG         7.6770  -10.1490   -0.6650 C.ar  155  HIS155      0.0818
     68  ND1        8.3110  -11.1040   -1.4450 N.ar  155  HIS155     -0.2268
     69  CD2        6.6050  -10.7680   -0.1090 C.ar  155  HIS155      0.1154
     70  CE1        7.6380  -12.2440   -1.3730 C.ar  155  HIS155      0.1986
     71  NE2        6.6070  -12.0700   -0.5570 N.ar  155  HIS155     -0.2212
     72  N          8.8450   -9.5040    2.9590 N.am  156  TYR156     -0.1976
     73  CA         8.3600   -9.4290    4.3440 C.3   156  TYR156      0.1639
     74  C          9.3350   -8.7110    5.2840 C.2   156  TYR156      0.2290
     75  O          9.0700   -8.5930    6.4750 O.2   156  TYR156     -0.2864
     76  CB         7.9640  -10.8280    4.9060 C.3   156  TYR156      0.0560
     77  CG         6.9250  -11.5090    4.0520 C.ar  156  TYR156     -0.0198
     78  CD1        5.6130  -10.9900    3.9300 C.ar  156  TYR156     -0.0009
     79  CD2        7.2570  -12.6180    3.2870 C.ar  156  TYR156     -0.0009
     80  CE1        4.6780  -11.5960    3.0880 C.ar  156  TYR156      0.0417
     81  CE2        6.3230  -13.2140    2.4290 C.ar  156  TYR156      0.0417
     82  CZ         5.0610  -12.7260    2.3460 C.ar  156  TYR156      0.1957
     83  OH         4.2180  -13.3410    1.4740 O.3   156  TYR156     -0.2866
     84  N         -0.7620   -5.5410   -4.5480 N.3   194  LEU194     -0.1245
     85  CA        -0.5170   -6.8170   -3.8330 C.3   194  LEU194      0.1561
     86  C          0.2890   -6.5720   -2.5830 C.2   194  LEU194      0.2260
     87  O          0.0760   -7.2100   -1.5690 O.2   194  LEU194     -0.2867
     88  CB         0.2120   -7.8590   -4.7010 C.3   194  LEU194      0.0270
     89  CG         0.6490   -9.1960   -4.0480 C.3   194  LEU194      0.0019
     90  CD1       -0.5090   -9.9100   -3.3060 C.3   194  LEU194      0.0001
     91  CD2        1.3880  -10.1630   -5.0510 C.3   194  LEU194      0.0001
     92  N         -2.1110   -5.2030    0.0670 N.3   197  ILE197     -0.1231
     93  CA        -2.9980   -6.2490    0.6070 C.3   197  ILE197      0.1692
     94  C         -2.2200   -7.0810    1.6440 C.2   197  ILE197      0.2592
     95  O         -2.7120   -7.4180    2.7270 O.2   197  ILE197     -0.2718
     96  CB        -3.5830   -7.1610   -0.5110 C.3   197  ILE197      0.0266
     97  CG1       -4.6060   -6.3940   -1.3490 C.3   197  ILE197      0.0019
     98  CG2       -4.2450   -8.4230    0.0880 C.3   197  ILE197      0.0020
     99  CD1       -5.1610   -7.2010   -2.5990 C.3   197  ILE197      0.0001
    100  N         -0.9790   -7.3830    1.3090 N.am  198  THR198     -0.1953
    101  CA        -0.1170   -8.1860    2.1430 C.3   198  THR198      0.1897
    102  C          0.2040   -7.4480    3.4590 C.2   198  THR198      0.2313
    103  O          0.0790   -8.0060    4.5380 O.2   198  THR198     -0.2863
    104  CB         1.1550   -8.5340    1.3420 C.3   198  THR198      0.1794
    105  OG1        0.7660   -9.1670    0.1080 O.3   198  THR198     -0.2208
    106  CG2        2.0820   -9.4660    2.1150 C.3   198  THR198      0.0378
    107  N         -1.3460   -9.1360    6.5180 N.3   202  LEU202     -0.1245
    108  CA        -0.3280  -10.0170    7.0980 C.3   202  LEU202      0.1561
    109  C          0.8000   -9.2410    7.8170 C.2   202  LEU202      0.2260
    110  O          1.6760   -9.8560    8.3740 O.2   202  LEU202     -0.2867
    111  CB         0.2330  -10.9550    6.0320 C.3   202  LEU202      0.0270
    112  CG        -0.7840  -11.9890    5.5240 C.3   202  LEU202      0.0019
    113  CD1       -0.2600  -12.7280    4.3170 C.3   202  LEU202      0.0001
    114  CD2       -1.1780  -12.9800    6.6420 C.3   202  LEU202      0.0001
@<TRIPOS>BOND
     1    54    55    1
     2    55    56    1
     3    55    58    1
     4    56    57    2
     5    58    59    1
     6    59    60    1
     7    59    61    1
     8    52    51    2
     9    31    30    2
    10    91    89    1
    11    88    89    1
    12    88    85    1
    13    84    85    1
    14    51    50    1
    15    89    90    1
    16    30    29    1
    17    85    86    1
    18    35    33    1
    19    27    26    1
    20    32    29    1
    21    32    33    1
    22    29    28    1
    23    50    53    1
    24    50    49    1
    25    34    33    1
    26    47    46    2
    27    99    97    1
    28    86    87    2
    29    24    26   ar
    30    24    22   ar
    31    26    25   ar
    32    46    45    1
    33    68    70   ar
    34    68    67   ar
    35    22    21   ar
    36    70    71   ar
    37    97    96    1
    38    25    23   ar
    39    19    18    2
    40    67    66    1
    41    67    69   ar
    42    45    48    1
    43    45    44    1
    44    71    69   ar
    45    96    98    1
    46    96    93    1
    47    66    63    1
    48    21    23   ar
    49    21    20    1
    50    18    17    1
    51    39    38    2
    52    92    93    1
    53   105   104    1
    54    17    20    1
    55    17    16    1
    56    12    11    2
    57    62    63    1
    58    93    94    1
    59    63    64    1
    60    44    38   am
    61    38    37    1
    62   100    94   am
    63   100   101    1
    64   104   106    1
    65   104   101    1
    66    11    16   am
    67    11    10    1
    68    83    82    1
    69    14    13    1
    70    94    95    2
    71    64    65    2
    72    64    72   am
    73   101   102    1
    74    37    36    1
    75    37    40    1
    76    82    81   ar
    77    82    80   ar
    78    81    79   ar
    79    42    41    1
    80    10    13    1
    81    10     9    1
    82    13    15    1
    83    41    40    1
    84    41    43    1
    85    72    73    1
    86    80    78   ar
    87    79    77   ar
    88   102   103    2
    89     4     3    2
    90    78    77   ar
    91    77    76    1
    92     7     5    1
    93   113   112    1
    94    73    76    1
    95    73    74    1
    96     3     2    1
    97    74    75    2
    98     2     5    1
    99     2     1    1
   100   112   111    1
   101   112   114    1
   102     5     6    1
   103     6     8    1
   104   111   108    1
   105   107   108    1
   106   108   109    1
   107   109   110    2
