@<TRIPOS>MOLECULE
tmp/2qebB00.pdb
 120 114 0 0 0
SMALL
GASTEIGER

@<TRIPOS>ATOM
      1  N         -1.8030   18.9760   11.7130 N.3     4  VAL4       -0.1245
      2  CA        -2.2760   19.7250   12.8650 C.3     4  VAL4        0.1561
      3  C         -1.1530   19.9590   13.8820 C.2     4  VAL4        0.2260
      4  O         -0.9780   21.0740   14.3590 O.2     4  VAL4       -0.2867
      5  CB        -3.5090   19.0560   13.5250 C.3     4  VAL4        0.0252
      6  CG1       -3.8130   19.6920   14.8830 C.3     4  VAL4        0.0019
      7  CG2       -4.7430   19.1650   12.5950 C.3     4  VAL4        0.0019
      8  N          0.4140   23.4520   15.3360 N.3     8  GLU8       -0.1245
      9  CA         0.6030   23.7200   16.7580 C.3     8  GLU8        0.1567
     10  C          2.0810   23.9430   17.1250 C.2     8  GLU8        0.2260
     11  O          2.3820   24.6310   18.0960 O.2     8  GLU8       -0.2867
     12  CB         0.0040   22.5860   17.6000 C.3     8  GLU8        0.0388
     13  CG        -1.4860   22.3830   17.3440 C.3     8  GLU8        0.1160
     14  CD        -2.1310   21.3710   18.2740 C.2     8  GLU8        0.3649
     15  OE1       -1.3980   20.5850   18.9190 O.co2   8  GLU8       -0.2457
     16  OE2       -3.3840   21.3570   18.3510 O.co2   8  GLU8       -0.2457
     17  N         -7.5320   26.0280   22.7330 N.3    22  ILE22      -0.1231
     18  CA        -7.7420   25.9860   21.3000 C.3    22  ILE22       0.1692
     19  C         -8.2250   24.5870   20.9390 C.2    22  ILE22       0.2591
     20  O         -9.1980   24.4310   20.1950 O.2    22  ILE22      -0.2718
     21  CB        -6.4580   26.3280   20.5310 C.3    22  ILE22       0.0266
     22  CG1       -5.9790   27.7350   20.9090 C.3    22  ILE22       0.0019
     23  CG2       -6.6980   26.2360   19.0290 C.3    22  ILE22       0.0020
     24  CD1       -4.7110   28.1560   20.1980 C.3    22  ILE22       0.0001
     25  N         -7.5640   23.5760   21.5080 N.am   23  ARG23      -0.1980
     26  CA        -7.9030   22.1800   21.2480 C.3    23  ARG23       0.1597
     27  C         -9.2750   21.7990   21.7910 C.2    23  ARG23       0.2287
     28  O         -9.8860   20.8300   21.3330 O.2    23  ARG23      -0.2864
     29  CB        -6.7970   21.2370   21.7760 C.3    23  ARG23       0.0334
     30  CG        -5.4990   21.3280   20.9750 C.3    23  ARG23       0.0492
     31  CD        -4.4660   20.2200   21.3320 C.3    23  ARG23       0.2205
     32  NE        -4.9950   18.8600   21.1570 N.pl3  23  ARG23      -0.0865
     33  CZ        -4.9460   18.1710   20.0150 C.cat  23  ARG23       0.5346
     34  NH1       -4.3990   18.7080   18.9300 N.pl3  23  ARG23       0.1354
     35  NH2       -5.4530   16.9400   19.9510 N.pl3  23  ARG23       0.1354
     36  N        -11.7160   23.6930   21.2680 N.3    25  TYR25      -0.1241
     37  CA       -12.5770   24.4750   20.3780 C.3    25  TYR25       0.1605
     38  C        -13.0890   25.7630   21.0140 C.2    25  TYR25       0.2264
     39  O        -14.1570   26.2650   20.6460 O.2    25  TYR25      -0.2867
     40  CB       -13.7480   23.6420   19.8400 C.3    25  TYR25       0.0534
     41  CG       -13.2890   22.3950   19.1230 C.ar   25  TYR25      -0.0201
     42  CD1      -12.7950   22.4670   17.8280 C.ar   25  TYR25      -0.0009
     43  CD2      -13.3210   21.1580   19.7500 C.ar   25  TYR25      -0.0009
     44  CE1      -12.3590   21.3280   17.1590 C.ar   25  TYR25       0.0417
     45  CE2      -12.8820   20.0150   19.0960 C.ar   25  TYR25       0.0417
     46  CZ       -12.4060   20.1110   17.8040 C.ar   25  TYR25       0.1957
     47  OH       -11.9730   18.9780   17.1520 O.3    25  TYR25      -0.2866
     48  N         -3.8030   30.3540   12.3120 N.3    36  HIS36      -0.1226
     49  CA        -3.7690   29.0220   12.8640 C.3    36  HIS36       0.1752
     50  C         -4.9570   28.1790   12.4170 C.2    36  HIS36       0.2595
     51  O         -4.8060   27.0030   12.0990 O.2    36  HIS36      -0.2718
     52  CB        -3.7460   29.0560   14.3840 C.3    36  HIS36       0.0759
     53  CG        -3.7080   27.6950   15.0010 C.ar   36  HIS36       0.0818
     54  ND1       -2.6850   26.8020   14.7600 N.ar   36  HIS36      -0.2268
     55  CD2       -4.5710   27.0640   15.8310 C.ar   36  HIS36       0.1154
     56  CE1       -2.9110   25.6870   15.4290 C.ar   36  HIS36       0.1986
     57  NE2       -4.0530   25.8170   16.0820 N.ar   36  HIS36      -0.2212
     58  N         -6.1460   28.7630   12.4290 N.am   37  ILE37      -0.1980
     59  CA        -7.3190   27.9860   12.0940 C.3    37  ILE37       0.1595
     60  C         -7.3500   27.6230   10.6020 C.2    37  ILE37       0.2287
     61  O         -7.7910   26.5290   10.2210 O.2    37  ILE37      -0.2864
     62  CB        -8.6130   28.6380   12.5880 C.3    37  ILE37       0.0276
     63  CG1       -8.6450   28.6570   14.1210 C.3    37  ILE37       0.0022
     64  CG2       -9.8190   27.9000   12.0400 C.3    37  ILE37       0.0022
     65  CD1       -8.2900   27.3240   14.7870 C.3    37  ILE37       0.0001
     66  N         -4.8140   24.5720   10.4350 N.3    40  VAL40      -0.1245
     67  CA        -5.4040   23.3070   10.8400 C.3    40  VAL40       0.1561
     68  C         -6.5470   22.8500    9.9310 C.2    40  VAL40       0.2260
     69  O         -6.7430   21.6490    9.7340 O.2    40  VAL40      -0.2867
     70  CB        -5.8570   23.2940   12.3280 C.3    40  VAL40       0.0252
     71  CG1       -4.6660   23.4820   13.2670 C.3    40  VAL40       0.0019
     72  CG2       -6.9300   24.3350   12.5820 C.3    40  VAL40       0.0019
     73  N        -15.1120   28.1110   10.5710 N.3    95  TYR95      -0.1241
     74  CA       -14.9420   27.3240   11.7860 C.3    95  TYR95       0.1605
     75  C        -15.8100   27.8510   12.9450 C.2    95  TYR95       0.2264
     76  O        -16.5680   27.0950   13.5470 O.2    95  TYR95      -0.2867
     77  CB       -13.4410   27.3310   12.1120 C.3    95  TYR95       0.0534
     78  CG       -12.9300   26.8210   13.4420 C.ar   95  TYR95      -0.0201
     79  CD1      -12.4640   25.5210   13.5740 C.ar   95  TYR95      -0.0009
     80  CD2      -12.8030   27.6760   14.5340 C.ar   95  TYR95      -0.0009
     81  CE1      -11.9300   25.0680   14.7640 C.ar   95  TYR95       0.0417
     82  CE2      -12.2780   27.2320   15.7310 C.ar   95  TYR95       0.0417
     83  CZ       -11.8360   25.9320   15.8350 C.ar   95  TYR95       0.1957
     84  OH       -11.3180   25.4930   17.0150 O.3    95  TYR95      -0.2866
     85  N        -13.9270   16.6810   13.2210 N.3   111  PHE111     -0.1227
     86  CA       -12.5730   17.2260   13.3240 C.3   111  PHE111      0.1736
     87  C        -11.6310   16.3120   14.1500 C.2   111  PHE111      0.2595
     88  O        -10.5600   15.9330   13.6810 O.2   111  PHE111     -0.2718
     89  CB       -12.6570   18.6380   13.9200 C.3   111  PHE111      0.0547
     90  CG       -11.3800   19.4240   13.8390 C.ar  111  PHE111     -0.0202
     91  CD1      -11.3180   20.5910   13.0930 C.ar  111  PHE111     -0.0042
     92  CD2      -10.2600   19.0250   14.5480 C.ar  111  PHE111     -0.0042
     93  CE1      -10.1520   21.3350   13.0330 C.ar  111  PHE111     -0.0003
     94  CE2       -9.0880   19.7590   14.4840 C.ar  111  PHE111     -0.0003
     95  CZ        -9.0390   20.9160   13.7280 C.ar  111  PHE111     -0.0000
     96  N        -12.0270   15.9440   15.3620 N.am  112  ASP112     -0.1974
     97  CA       -11.2390   14.9890   16.1630 C.3   112  ASP112      0.1709
     98  C        -10.8850   13.7070   15.4030 C.2   112  ASP112      0.2293
     99  O         -9.7350   13.2430   15.4300 O.2   112  ASP112     -0.2864
    100  CB       -11.9740   14.6100   17.4520 C.3   112  ASP112      0.1436
    101  CG       -11.9980   15.7430   18.4710 C.2   112  ASP112      0.3671
    102  OD1      -11.3060   16.7670   18.2580 O.co2 112  ASP112     -0.2456
    103  OD2      -12.7210   15.5990   19.4760 O.co2 112  ASP112     -0.2456
    104  N         -8.3200   14.3460   12.5670 N.3   115  GLU115     -0.1245
    105  CA        -6.9770   14.5880   13.0890 C.3   115  GLU115      0.1567
    106  C         -6.2260   13.2820   13.3810 C.2   115  GLU115      0.2260
    107  O         -5.1070   13.0710   12.9050 O.2   115  GLU115     -0.2867
    108  CB        -7.0210   15.4860   14.3330 C.3   115  GLU115      0.0388
    109  CG        -5.6340   15.7740   14.9130 C.3   115  GLU115      0.1160
    110  CD        -5.6800   16.6110   16.1860 C.2   115  GLU115      0.3649
    111  OE1       -6.7840   16.8090   16.7350 O.co2 115  GLU115     -0.2457
    112  OE2       -4.6060   17.0670   16.6370 O.co2 115  GLU115     -0.2457
    113  N         -8.6100    9.6920   22.2120 N.3   136  MET136     -0.1245
    114  CA        -8.3670   11.1300   22.1970 C.3   136  MET136      0.1570
    115  C         -7.9470   11.6580   23.5720 C.2   136  MET136      0.2261
    116  O         -7.1690   12.5990   23.6600 O.2   136  MET136     -0.2867
    117  CB        -9.5600   11.9120   21.6400 C.3   136  MET136      0.0387
    118  CG        -9.2790   13.4060   21.4490 C.3   136  MET136      0.0595
    119  SD        -7.9230   13.8160   20.3040 S.3   136  MET136     -0.1393
    120  CE        -8.7630   13.6750   18.7320 C.3   136  MET136      0.0692
@<TRIPOS>BOND
     1    69    68    2
     2    68    67    1
     3    61    60    2
     4    66    67    1
     5    73    74    1
     6    60    59    1
     7    67    70    1
     8     1     2    1
     9    74    77    1
    10    74    75    1
    11    64    62    1
    12    59    58    1
    13    59    62    1
    14    51    50    2
    15    77    78    1
    16    48    49    1
    17    70    72    1
    18    70    71    1
    19    50    58   am
    20    50    49    1
    21   104   105    1
    22    62    63    1
    23     7     5    1
    24    49    52    1
    25     2     5    1
    26     2     3    1
    27   107   106    2
    28    75    76    2
    29    93    91   ar
    30    93    95   ar
    31   105   106    1
    32   105   108    1
    33    91    90   ar
    34    85    86    1
    35    86    89    1
    36    86    87    1
    37    78    79   ar
    38    78    80   ar
    39     5     6    1
    40    79    81   ar
    41    88    87    2
    42    95    94   ar
    43    90    89    1
    44    90    92   ar
    45     3     4    2
    46    63    65    1
    47    87    96   am
    48   108   109    1
    49    52    53    1
    50    94    92   ar
    51    80    82   ar
    52    54    53   ar
    53    54    56   ar
    54    81    83   ar
    55   109   110    1
    56    53    55   ar
    57     8     9    1
    58    96    97    1
    59    98    99    2
    60    98    97    1
    61    56    57   ar
    62    82    83   ar
    63    55    57   ar
    64    83    84    1
    65    97   100    1
    66   110   112   ar
    67   110   111   ar
    68     9    10    1
    69     9    12    1
    70    10    11    2
    71    47    46    1
    72    44    46   ar
    73    44    42   ar
    74    13    12    1
    75    13    14    1
    76   100   101    1
    77    46    45   ar
    78    42    41   ar
    79   102   101   ar
    80    14    16   ar
    81    14    15   ar
    82   101   103   ar
    83   120   119    1
    84    34    33    1
    85    23    21    1
    86    45    43   ar
    87    41    43   ar
    88    41    40    1
    89    40    37    1
    90    35    33    1
    91    33    32    2
    92    20    19    2
    93    24    22    1
    94   119   118    1
    95    37    38    1
    96    37    36    1
    97    21    22    1
    98    21    18    1
    99    39    38    2
   100    19    18    1
   101    19    25   am
   102    30    31    1
   103    30    29    1
   104    32    31    1
   105    26    25    1
   106    26    29    1
   107    26    27    1
   108    18    17    1
   109    28    27    2
   110   118   117    1
   111   117   114    1
   112   114   113    1
   113   114   115    1
   114   115   116    2
