@<TRIPOS>MOLECULE
tmp/2qenA00.pdb
 217 210 0 0 0
SMALL
GASTEIGER

@<TRIPOS>ATOM
      1  N         27.3640   -3.6720   31.1260 N.3     2  LEU2       -0.1245
      2  CA        26.3400   -2.7170   31.5770 C.3     2  LEU2        0.1561
      3  C         26.8720   -1.7430   32.6200 C.2     2  LEU2        0.2260
      4  O         26.6680   -0.5310   32.5090 O.2     2  LEU2       -0.2867
      5  CB        25.1180   -3.4260   32.1750 C.3     2  LEU2        0.0270
      6  CG        23.9840   -3.9760   31.3090 C.3     2  LEU2        0.0019
      7  CD1       22.8090   -4.3450   32.2280 C.3     2  LEU2        0.0001
      8  CD2       23.5440   -2.9920   30.2170 C.3     2  LEU2        0.0001
      9  N         29.2380    0.2110   33.4910 N.3     4  ASP4       -0.1225
     10  CA        30.3550    0.9220   32.8810 C.3     4  ASP4        0.1805
     11  C         29.8540    2.3250   32.5790 C.2     4  ASP4        0.2598
     12  O         28.7720    2.4820   32.0420 O.2     4  ASP4       -0.2718
     13  CB        30.7870    0.2160   31.5880 C.3     4  ASP4        0.1424
     14  CG        32.1370    0.6780   31.0950 C.2     4  ASP4        0.3668
     15  OD1       32.2830    1.8720   30.7550 O.co2   4  ASP4       -0.2456
     16  OD2       33.0630   -0.1620   31.0470 O.co2   4  ASP4       -0.2456
     17  N         30.6420    3.3390   32.9340 N.am    5  LEU5       -0.1966
     18  CA        30.2130    4.7460   32.8230 C.3     5  LEU5        0.1728
     19  C         30.4440    5.4010   31.4630 C.2     5  LEU5        0.2616
     20  O         29.8590    6.4490   31.1910 O.2     5  LEU5       -0.2715
     21  CB        30.8740    5.6010   33.9100 C.3     5  LEU5        0.0311
     22  CG        30.5980    5.2150   35.3640 C.3     5  LEU5        0.0022
     23  CD1       31.7330    5.6950   36.2580 C.3     5  LEU5        0.0001
     24  CD2       29.2460    5.7590   35.8370 C.3     5  LEU5        0.0001
     25  N         31.2890    4.8070   30.6190 N.am    6  ARG6       -0.1964
     26  CA        31.5250    5.3280   29.2570 C.3     6  ARG6        0.1714
     27  C         30.2400    5.2980   28.4140 C.2     6  ARG6        0.2458
     28  O         29.3600    4.4680   28.6680 O.2     6  ARG6       -0.2730
     29  CB        32.6420    4.5370   28.5620 C.3     6  ARG6        0.0347
     30  CG        33.9430    4.4650   29.3580 C.3     6  ARG6        0.0492
     31  CD        35.0670    3.7610   28.5940 C.3     6  ARG6        0.2205
     32  NE        34.7340    2.3830   28.2200 N.pl3   6  ARG6       -0.0865
     33  CZ        35.2480    1.2890   28.7840 C.cat   6  ARG6        0.5346
     34  NH1       36.1380    1.3810   29.7680 N.pl3   6  ARG6        0.1354
     35  NH2       34.8720    0.0910   28.3580 N.pl3   6  ARG6        0.1354
     36  N         30.1120    6.2150   27.4190 N.am    7  PRO7       -0.2716
     37  CA        28.9080    6.2530   26.5840 C.3     7  PRO7        0.1536
     38  C         28.6320    4.9540   25.8240 C.2     7  PRO7        0.2598
     39  O         29.5450    4.3340   25.2860 O.2     7  PRO7       -0.2715
     40  CB        29.1990    7.3910   25.5930 C.3     7  PRO7        0.0310
     41  CG        30.2120    8.2370   26.2670 C.3     7  PRO7        0.0237
     42  CD        31.0690    7.2680   27.0290 C.3     7  PRO7        0.0939
     43  N         27.3720    4.5510   25.7880 N.am    8  LYS8       -0.1978
     44  CA        26.9740    3.3540   25.0560 C.3     8  LYS8        0.1596
     45  C         26.5930    3.7180   23.6170 C.2     8  LYS8        0.2287
     46  O         25.7960    4.6310   23.3850 O.2     8  LYS8       -0.2864
     47  CB        25.8470    2.6380   25.7970 C.3     8  LYS8        0.0298
     48  CG        26.3040    2.1740   27.1870 C.3     8  LYS8        0.0038
     49  CD        25.2630    1.4180   27.9600 C.3     8  LYS8        0.0206
     50  CE        25.7390    1.1610   29.4070 C.3     8  LYS8        0.1093
     51  NZ        27.0680    0.4580   29.5350 N.3     8  LYS8       -0.1314
     52  N         25.1040   -3.3300   23.3850 N.3    13  ASP13      -0.1225
     53  CA        25.4640   -2.6910   24.6630 C.3    13  ASP13       0.1805
     54  C         24.2790   -2.0450   25.3990 C.2    13  ASP13       0.2598
     55  O         24.4330   -1.5090   26.4910 O.2    13  ASP13      -0.2718
     56  CB        26.5830   -1.6700   24.4240 C.3    13  ASP13       0.1424
     57  CG        27.7740   -2.2790   23.6920 C.2    13  ASP13       0.3668
     58  OD1       27.9400   -3.5180   23.7510 O.co2  13  ASP13      -0.2456
     59  OD2       28.5320   -1.5260   23.0430 O.co2  13  ASP13      -0.2456
     60  N         23.1010   -2.1220   24.7920 N.am   14  ILE14      -0.1966
     61  CA        21.8760   -1.5050   25.3080 C.3    14  ILE14       0.1727
     62  C         20.9660   -2.6050   25.8510 C.2    14  ILE14       0.2616
     63  O         20.6060   -3.5210   25.1100 O.2    14  ILE14      -0.2715
     64  CB        21.1470   -0.6760   24.1680 C.3    14  ILE14       0.0290
     65  CG1       21.9100    0.6270   23.8540 C.3    14  ILE14       0.0022
     66  CG2       19.6710   -0.3850   24.4960 C.3    14  ILE14       0.0023
     67  CD1       22.2000    1.4790   25.0710 C.3    14  ILE14       0.0001
     68  N         20.6160   -2.5220   27.1400 N.am   15  PHE15      -0.1974
     69  CA        19.6260   -3.4260   27.7320 C.3    15  PHE15       0.1639
     70  C         18.2300   -3.1080   27.1950 C.2    15  PHE15       0.2290
     71  O         17.8260   -1.9460   27.1500 O.2    15  PHE15      -0.2864
     72  CB        19.6340   -3.3490   29.2660 C.3    15  PHE15       0.0560
     73  CG        18.8330   -4.4440   29.9430 C.ar   15  PHE15      -0.0200
     74  CD1       19.4010   -5.6940   30.1750 C.ar   15  PHE15      -0.0042
     75  CD2       17.5120   -4.2200   30.3550 C.ar   15  PHE15      -0.0042
     76  CE1       18.6660   -6.7160   30.7930 C.ar   15  PHE15      -0.0003
     77  CE2       16.7720   -5.2300   30.9860 C.ar   15  PHE15      -0.0003
     78  CZ        17.3530   -6.4830   31.2010 C.ar   15  PHE15      -0.0000
     79  N         15.0340   -2.1590   25.2770 N.3    17  ARG17      -0.1245
     80  CA        14.6550   -1.1000   24.3130 C.3    17  ARG17       0.1563
     81  C         14.3020   -1.6080   22.9100 C.2    17  ARG17       0.2260
     82  O         14.4220   -0.8830   21.9210 O.2    17  ARG17      -0.2867
     83  CB        15.7130    0.0130   24.2500 C.3    17  ARG17       0.0307
     84  CG        15.9370    0.7950   25.5550 C.3    17  ARG17       0.0489
     85  CD        14.6590    1.4320   26.1140 C.3    17  ARG17       0.2205
     86  NE        14.9230    2.3930   27.1940 N.pl3  17  ARG17      -0.0865
     87  CZ        14.0250    2.7580   28.1060 C.cat  17  ARG17       0.5346
     88  NH1       12.8020    2.2340   28.0810 N.pl3  17  ARG17       0.1354
     89  NH2       14.3420    3.6440   29.0500 N.pl3  17  ARG17       0.1354
     90  N         15.0250   13.2310   31.2700 N.3    40  ARG40      -0.1231
     91  CA        16.4850   13.2080   31.2670 C.3    40  ARG40       0.1694
     92  C         16.9990   11.9390   31.9650 C.2    40  ARG40       0.2592
     93  O         16.5060   11.5810   33.0320 O.2    40  ARG40      -0.2718
     94  CB        17.0240   14.4480   31.9820 C.3    40  ARG40       0.0321
     95  CG        18.5180   14.4180   32.2560 C.3    40  ARG40       0.0489
     96  CD        19.3200   15.1490   31.2010 C.3    40  ARG40       0.2205
     97  NE        19.3900   16.5740   31.5130 N.pl3  40  ARG40      -0.0865
     98  CZ        20.5040   17.2400   31.8050 C.cat  40  ARG40       0.5346
     99  NH1       21.6820   16.6190   31.8240 N.pl3  40  ARG40       0.1354
    100  NH2       20.4380   18.5410   32.0680 N.pl3  40  ARG40       0.1354
    101  N         17.9730   11.2760   31.3320 N.am   41  ARG41      -0.1966
    102  CA        18.6600   10.0630   31.8310 C.3    41  ARG41       0.1729
    103  C         17.8940    8.7730   31.5900 C.2    41  ARG41       0.2616
    104  O         18.3190    7.7100   32.0390 O.2    41  ARG41      -0.2715
    105  CB        19.0330   10.1560   33.3150 C.3    41  ARG41       0.0348
    106  CG        20.1180   11.1480   33.6290 C.3    41  ARG41       0.0492
    107  CD        19.9680   11.6640   35.0420 C.3    41  ARG41       0.2205
    108  NE        20.8500   12.8090   35.2540 N.pl3  41  ARG41      -0.0865
    109  CZ        20.4440   14.0410   35.5480 C.cat  41  ARG41       0.5346
    110  NH1       19.1440   14.3280   35.7240 N.pl3  41  ARG41       0.1354
    111  NH2       21.3570   14.9900   35.6930 N.pl3  41  ARG41       0.1354
    112  N         16.7680    8.8750   30.8940 N.am   42  VAL42      -0.1963
    113  CA        15.9310    7.7160   30.6020 C.3    42  VAL42       0.1727
    114  C         16.5610    6.7860   29.5550 C.2    42  VAL42       0.2617
    115  O         16.1970    5.6160   29.4620 O.2    42  VAL42      -0.2715
    116  CB        14.4990    8.1590   30.1710 C.3    42  VAL42       0.0290
    117  CG1       14.4570    8.6250   28.6770 C.3    42  VAL42       0.0023
    118  CG2       13.4920    7.0720   30.4710 C.3    42  VAL42       0.0023
    119  N         17.4810    7.3230   28.7560 N.am   43  GLY43      -0.1940
    120  CA        18.2090    6.5380   27.7620 C.3    43  GLY43       0.2014
    121  C         18.0410    6.9120   26.2900 C.2    43  GLY43       0.2639
    122  O         18.2890    6.0700   25.4260 O.2    43  GLY43      -0.2714
    123  N         17.6350    8.1560   26.0030 N.am   44  LYS44      -0.1963
    124  CA        17.4260    8.6290   24.6090 C.3    44  LYS44       0.1728
    125  C         18.6950    8.7130   23.7690 C.2    44  LYS44       0.2617
    126  O         18.7270    8.2120   22.6340 O.2    44  LYS44      -0.2715
    127  CB        16.7130   10.0030   24.5610 C.3    44  LYS44       0.0311
    128  CG        15.3860   10.1130   25.3270 C.3    44  LYS44       0.0038
    129  CD        14.7770   11.5110   25.1850 C.3    44  LYS44       0.0206
    130  CE        15.5490   12.5860   25.9590 C.3    44  LYS44       0.1093
    131  NZ        15.6990   12.2890   27.4560 N.3    44  LYS44      -0.1314
    132  N         19.7400    9.3680   24.2870 N.am   45  SER45      -0.1936
    133  CA        21.0080    9.4350   23.5380 C.3    45  SER45       0.2055
    134  C         21.5710    8.0510   23.2290 C.2    45  SER45       0.2643
    135  O         22.0190    7.7840   22.1070 O.2    45  SER45      -0.2714
    136  CB        22.0580   10.2550   24.2760 C.3    45  SER45       0.2130
    137  OG        21.7400   11.6300   24.1990 O.3    45  SER45      -0.2179
    138  N         21.5310    7.1800   24.2310 N.am   46  SER46      -0.1949
    139  CA        22.0520    5.8240   24.1150 C.3    46  SER46       0.1924
    140  C         21.3280    5.0250   23.0460 C.2    46  SER46       0.2314
    141  O         21.9720    4.3990   22.2210 O.2    46  SER46      -0.2863
    142  CB        21.9600    5.1040   25.4650 C.3    46  SER46       0.2116
    143  OG        22.6240    5.8750   26.4530 O.3    46  SER46      -0.2180
    144  N         22.2940    6.6020   19.5870 N.3    49  ARG49      -0.1245
    145  CA        23.6270    6.1840   19.1330 C.3    49  ARG49       0.1563
    146  C         23.6800    4.7400   18.6240 C.2    49  ARG49       0.2260
    147  O         24.3170    4.4660   17.6010 O.2    49  ARG49      -0.2867
    148  CB        24.6860    6.3680   20.2330 C.3    49  ARG49       0.0307
    149  CG        25.1430    7.8180   20.4460 C.3    49  ARG49       0.0489
    150  CD        26.3770    7.9010   21.3340 C.3    49  ARG49       0.2205
    151  NE        26.0690    7.4690   22.6960 N.pl3  49  ARG49      -0.0865
    152  CZ        25.6650    8.2670   23.6750 C.cat  49  ARG49       0.5346
    153  NH1       25.5170    9.5730   23.4770 N.pl3  49  ARG49       0.1354
    154  NH2       25.3950    7.7490   24.8630 N.pl3  49  ARG49       0.1354
    155  N         20.2680   16.1080   18.9800 N.3   135  ASP135     -0.1225
    156  CA        20.0670   15.6950   20.3590 C.3   135  ASP135      0.1805
    157  C         19.8000   16.9100   21.2150 C.2   135  ASP135      0.2597
    158  O         20.5870   17.8540   21.2110 O.2   135  ASP135     -0.2718
    159  CB        21.2910   14.9290   20.8830 C.3   135  ASP135      0.1424
    160  CG        20.9090   13.7910   21.8260 C.2   135  ASP135      0.3668
    161  OD1       19.7030   13.6700   22.2170 O.co2 135  ASP135     -0.2456
    162  OD2       21.8180   12.9970   22.1550 O.co2 135  ASP135     -0.2456
    163  N         18.6710   16.8890   21.9250 N.am  136  GLU136     -0.1979
    164  CA        18.2070   18.0170   22.7480 C.3   136  GLU136      0.1602
    165  C         18.0020   19.2610   21.8790 C.2   136  GLU136      0.2287
    166  O         18.5260   20.3550   22.1640 O.2   136  GLU136     -0.2864
    167  CB        19.1510   18.2960   23.9370 C.3   136  GLU136      0.0415
    168  CG        19.4100   17.1150   24.9000 C.3   136  GLU136      0.1163
    169  CD        18.2010   16.6790   25.7320 C.2   136  GLU136      0.3649
    170  OE1       17.2010   17.4280   25.8190 O.co2 136  GLU136     -0.2457
    171  OE2       18.2550   15.5660   26.3160 O.co2 136  GLU136     -0.2457
    172  N         14.6970   16.1080   26.2480 N.3   172  SER172     -0.1217
    173  CA        14.3380   15.8000   27.6300 C.3   172  SER172      0.1889
    174  C         13.3160   16.8130   28.1520 C.2   172  SER172      0.2288
    175  O         12.4760   16.4730   28.9860 O.2   172  SER172     -0.2866
    176  CB        15.5790   15.7990   28.5230 C.3   172  SER172      0.2089
    177  OG        16.5280   14.8290   28.0820 O.3   172  SER172     -0.2183
    178  N         12.1770    2.0600   32.7760 N.3   203  PHE203     -0.1241
    179  CA        11.9200    0.6290   32.8710 C.3   203  PHE203      0.1605
    180  C         10.8520    0.3620   33.9240 C.2   203  PHE203      0.2264
    181  O         10.8000    1.0540   34.9500 O.2   203  PHE203     -0.2867
    182  CB        13.1860   -0.1280   33.3080 C.3   203  PHE203      0.0534
    183  CG        14.3310   -0.0810   32.3180 C.ar  203  PHE203     -0.0203
    184  CD1       14.1020   -0.0320   30.9340 C.ar  203  PHE203     -0.0042
    185  CD2       15.6540   -0.1400   32.7790 C.ar  203  PHE203     -0.0042
    186  CE1       15.1720   -0.0120   30.0300 C.ar  203  PHE203     -0.0003
    187  CE2       16.7290   -0.1280   31.8750 C.ar  203  PHE203     -0.0003
    188  CZ        16.4880   -0.0530   30.5050 C.ar  203  PHE203     -0.0000
    189  N         17.7360   -5.7110   34.6770 N.3   211  PHE211     -0.1241
    190  CA        18.8520   -4.8410   34.3090 C.3   211  PHE211      0.1605
    191  C         20.0030   -5.0140   35.2990 C.2   211  PHE211      0.2264
    192  O         21.1180   -5.3440   34.9000 O.2   211  PHE211     -0.2867
    193  CB        18.3640   -3.3790   34.2670 C.3   211  PHE211      0.0534
    194  CG        19.3870   -2.3910   33.7810 C.ar  211  PHE211     -0.0203
    195  CD1       20.3560   -1.8650   34.6540 C.ar  211  PHE211     -0.0042
    196  CD2       19.3590   -1.9410   32.4600 C.ar  211  PHE211     -0.0042
    197  CE1       21.3070   -0.9410   34.2060 C.ar  211  PHE211     -0.0003
    198  CE2       20.2900   -1.0190   32.0110 C.ar  211  PHE211     -0.0003
    199  CZ        21.2730   -0.5140   32.8970 C.ar  211  PHE211     -0.0000
    200  N         17.6630    4.2590   33.8890 N.3   239  PRO239     -0.2102
    201  CA        18.9010    3.5450   33.5870 C.3   239  PRO239      0.1504
    202  C         20.1610    4.3040   34.0070 C.2   239  PRO239      0.2576
    203  O         21.1320    3.6700   34.3830 O.2   239  PRO239     -0.2718
    204  CB        18.8520    3.3830   32.0630 C.3   239  PRO239      0.0282
    205  CG        17.3970    3.4690   31.7180 C.3   239  PRO239      0.0208
    206  CD        16.8440    4.4720   32.6770 C.3   239  PRO239      0.0893
    207  N         20.1340    5.6380   33.9480 N.am  240  GLY240     -0.1957
    208  CA        21.2810    6.4580   34.3500 C.3   240  GLY240      0.1869
    209  C         21.6990    6.1790   35.7870 C.2   240  GLY240      0.2309
    210  O         22.8850    5.9980   36.0710 O.2   240  GLY240     -0.2863
    211  N         22.8490    2.2770   36.3950 N.3   243  VAL243     -0.1245
    212  CA        24.2610    2.0930   36.0090 C.3   243  VAL243      0.1561
    213  C         25.2540    2.6760   37.0310 C.2   243  VAL243      0.2260
    214  O         26.2400    2.0250   37.3540 O.2   243  VAL243     -0.2867
    215  CB        24.5690    2.6110   34.5690 C.3   243  VAL243      0.0252
    216  CG1       26.0880    2.6030   34.2850 C.3   243  VAL243      0.0019
    217  CG2       23.8590    1.7580   33.5250 C.3   243  VAL243      0.0019
@<TRIPOS>BOND
     1   147   146    2
     2   146   145    1
     3   155   156    1
     4   145   144    1
     5   145   148    1
     6   148   149    1
     7   156   159    1
     8   156   157    1
     9   149   150    1
    10   159   160    1
    11   158   157    2
    12   157   163   am
    13   150   151    1
    14   160   162   ar
    15   160   161   ar
    16   165   166    2
    17   165   164    1
    18    82    81    2
    19   163   164    1
    20   135   134    2
    21   141   140    2
    22   126   125    2
    23   151   152    2
    24   164   167    1
    25    81    80    1
    26    59    57   ar
    27   140   139    1
    28   134   133    1
    29   134   138   am
    30    52    53    1
    31    46    45    2
    32   153   152    1
    33   133   136    1
    34   133   132    1
    35    45    44    1
    36   152   154    1
    37    57    58   ar
    38    57    56    1
    39   125   132   am
    40   125   124    1
    41    65    64    1
    42    65    67    1
    43   167   168    1
    44   139   138    1
    45   139   142    1
    46    64    66    1
    47    64    61    1
    48   137   136    1
    49    83    80    1
    50    83    84    1
    51    80    79    1
    52    56    53    1
    53   127   124    1
    54   127   128    1
    55   124   123    1
    56    53    54    1
    57    60    61    1
    58    60    54   am
    59   168   169    1
    60    44    43    1
    61    44    47    1
    62    63    62    2
    63   129   128    1
    64   129   130    1
    65    39    38    2
    66    61    62    1
    67    54    55    2
    68   122   121    2
    69   142   143    1
    70    84    85    1
    71    40    41    1
    72    40    37    1
    73   169   170   ar
    74   169   171   ar
    75    43    38   am
    76    47    48    1
    77    38    37    1
    78    62    68   am
    79   130   131    1
    80   123   121   am
    81    85    86    1
    82   172   173    1
    83    41    42    1
    84   121   120    1
    85    37    36    1
    86    42    36    1
    87    68    69    1
    88    71    70    2
    89    48    49    1
    90    86    87    2
    91    70    69    1
    92    36    27   am
    93   173   174    1
    94   173   176    1
    95    69    72    1
    96   120   119    1
    97    49    50    1
    98    88    87    1
    99   177   176    1
   100    87    89    1
   101   174   175    2
   102    32    31    1
   103    32    33    2
   104    35    33    1
   105    27    28    2
   106    27    26    1
   107    29    26    1
   108    29    30    1
   109    31    30    1
   110   117   116    1
   111   119   114   am
   112    33    34    1
   113    26    25    1
   114    72    73    1
   115    50    51    1
   116   115   114    2
   117   114   113    1
   118    73    74   ar
   119    73    75   ar
   120   186   188   ar
   121   186   184   ar
   122   116   118    1
   123   116   113    1
   124    74    76   ar
   125     8     6    1
   126    75    77   ar
   127   188   187   ar
   128   113   112    1
   129    25    19   am
   130    15    14   ar
   131    76    78   ar
   132   112   103   am
   133   184   183   ar
   134    77    78   ar
   135    16    14   ar
   136    14    13    1
   137     1     2    1
   138    20    19    2
   139    96    97    1
   140    96    95    1
   141    91    90    1
   142    91    92    1
   143    91    94    1
   144     6     5    1
   145     6     7    1
   146   101   102    1
   147   101    92   am
   148    19    18    1
   149    97    98    2
   150     2     5    1
   151     2     3    1
   152    13    10    1
   153   103   102    1
   154   103   104    2
   155   205   204    1
   156   205   206    1
   157    98    99    1
   158    98   100    1
   159   102   105    1
   160   187   185   ar
   161    92    93    2
   162    94    95    1
   163   198   196   ar
   164   198   199   ar
   165    12    11    2
   166   204   201    1
   167   183   185   ar
   168   183   182    1
   169   196   194   ar
   170     4     3    2
   171    11    10    1
   172    11    17   am
   173   206   200    1
   174   178   179    1
   175    18    17    1
   176    18    21    1
   177   179   182    1
   178   179   180    1
   179    10     9    1
   180   199   197   ar
   181   105   106    1
   182   217   215    1
   183   201   200    1
   184   201   202    1
   185   106   107    1
   186   194   193    1
   187   194   195   ar
   188    21    22    1
   189   180   181    2
   190   207   202   am
   191   207   208    1
   192   202   203    2
   193   197   195   ar
   194   193   190    1
   195   216   215    1
   196   190   189    1
   197   190   191    1
   198   208   209    1
   199   215   212    1
   200   192   191    2
   201   107   108    1
   202   108   109    2
   203    22    24    1
   204    22    23    1
   205   109   111    1
   206   109   110    1
   207   209   210    2
   208   212   211    1
   209   212   213    1
   210   213   214    2
