@<TRIPOS>MOLECULE
tmp/2qeoA00.pdb
 128 121 0 0 0
SMALL
GASTEIGER

@<TRIPOS>ATOM
      1  N         45.1810  -24.2980  -10.1020 N.3     3  VAL3       -0.1245
      2  CA        44.7820  -23.4730   -8.9630 C.3     3  VAL3        0.1561
      3  C         45.9120  -23.4390   -7.9310 C.2     3  VAL3        0.2260
      4  O         46.1880  -22.4040   -7.3180 O.2     3  VAL3       -0.2867
      5  CB        43.4950  -24.0120   -8.2760 C.3     3  VAL3        0.0252
      6  CG1       43.2210  -23.2440   -6.9620 C.3     3  VAL3        0.0019
      7  CG2       42.3120  -23.9060   -9.2140 C.3     3  VAL3        0.0019
      8  N         48.0770  -20.1680   -6.3680 N.3     7  GLU7       -0.1245
      9  CA        48.1910  -19.8800   -4.9400 C.3     7  GLU7        0.1567
     10  C         49.6570  -19.8030   -4.5240 C.2     7  GLU7        0.2260
     11  O         50.0160  -19.0410   -3.6270 O.2     7  GLU7       -0.2867
     12  CB        47.4600  -20.9590   -4.1340 C.3     7  GLU7        0.0388
     13  CG        45.9500  -20.9590   -4.4020 C.3     7  GLU7        0.1160
     14  CD        45.1650  -22.0200   -3.6330 C.2     7  GLU7        0.3649
     15  OE1       45.7760  -22.9270   -3.0120 O.co2   7  GLU7       -0.2457
     16  OE2       43.9150  -21.9560   -3.6770 O.co2   7  GLU7       -0.2457
     17  N         40.5300  -16.9480    1.2550 N.3    21  ILE21      -0.1231
     18  CA        40.4360  -17.0450   -0.1860 C.3    21  ILE21       0.1692
     19  C         39.7400  -18.3470   -0.5940 C.2    21  ILE21       0.2591
     20  O         38.8360  -18.3340   -1.4260 O.2    21  ILE21      -0.2718
     21  CB        41.8340  -16.8970   -0.8370 C.3    21  ILE21       0.0266
     22  CG1       42.4480  -15.5400   -0.4590 C.3    21  ILE21       0.0019
     23  CG2       41.7670  -17.0900   -2.3220 C.3    21  ILE21       0.0020
     24  CD1       43.7590  -15.2190   -1.1680 C.3    21  ILE21       0.0001
     25  N         40.1380  -19.4640    0.0140 N.am   22  ARG22      -0.1980
     26  CA        39.6720  -20.7870   -0.4350 C.3    22  ARG22       0.1597
     27  C         38.2580  -21.1580    0.0560 C.2    22  ARG22       0.2287
     28  O         37.6660  -22.1030   -0.4470 O.2    22  ARG22      -0.2864
     29  CB        40.6820  -21.8840   -0.0300 C.3    22  ARG22       0.0334
     30  CG        41.9580  -21.9330   -0.8960 C.3    22  ARG22       0.0492
     31  CD        42.8260  -23.1570   -0.5700 C.3    22  ARG22       0.2205
     32  NE        42.1020  -24.4130   -0.7670 N.pl3  22  ARG22      -0.0865
     33  CZ        41.9170  -25.0000   -1.9470 C.cat  22  ARG22       0.5346
     34  NH1       42.4390  -24.4550   -3.0460 N.pl3  22  ARG22       0.1354
     35  NH2       41.2120  -26.1340   -2.0240 N.pl3  22  ARG22       0.1354
     36  N         36.1270  -18.7510   -0.3340 N.3    24  TYR24      -0.1241
     37  CA        35.4050  -17.8220   -1.2120 C.3    24  TYR24       0.1605
     38  C         34.9920  -16.5560   -0.4970 C.2    24  TYR24       0.2264
     39  O         33.9770  -15.9670   -0.8300 O.2    24  TYR24      -0.2867
     40  CB        34.1360  -18.4710   -1.7680 C.3    24  TYR24       0.0534
     41  CG        34.4020  -19.7160   -2.5690 C.ar   24  TYR24      -0.0201
     42  CD1       34.7970  -19.6400   -3.8910 C.ar   24  TYR24      -0.0009
     43  CD2       34.2760  -20.9710   -1.9880 C.ar   24  TYR24      -0.0009
     44  CE1       35.0470  -20.7820   -4.6230 C.ar   24  TYR24       0.0417
     45  CE2       34.5350  -22.1080   -2.7010 C.ar   24  TYR24       0.0417
     46  CZ        34.9160  -22.0140   -4.0170 C.ar   24  TYR24       0.1957
     47  OH        35.1650  -23.1650   -4.7220 O.3    24  TYR24      -0.2866
     48  N         44.7300  -12.7810   -8.9210 N.3    35  HIS35      -0.1226
     49  CA        44.6620  -14.1710   -8.4840 C.3    35  HIS35       0.1752
     50  C         43.3990  -14.8590   -8.9750 C.2    35  HIS35       0.2595
     51  O         43.4450  -15.9990   -9.4600 O.2    35  HIS35      -0.2718
     52  CB        44.7500  -14.2570   -6.9650 C.3    35  HIS35       0.0759
     53  CG        44.4710  -15.6250   -6.4150 C.ar   35  HIS35       0.0818
     54  ND1       45.2970  -16.7070   -6.6410 N.ar   35  HIS35      -0.2268
     55  CD2       43.4710  -16.0760   -5.6190 C.ar   35  HIS35       0.1154
     56  CE1       44.8110  -17.7660   -6.0160 C.ar   35  HIS35       0.1986
     57  NE2       43.7110  -17.4070   -5.3770 N.ar   35  HIS35      -0.2212
     58  N         42.2710  -14.1680   -8.8510 N.am   36  ILE36      -0.1980
     59  CA        40.9970  -14.7450   -9.2640 C.3    36  ILE36       0.1595
     60  C         40.9370  -14.8980  -10.7740 C.2    36  ILE36       0.2287
     61  O         40.3460  -15.8340  -11.2980 O.2    36  ILE36      -0.2864
     62  CB        39.8070  -13.9060   -8.7820 C.3    36  ILE36       0.0276
     63  CG1       39.8400  -13.8190   -7.2610 C.3    36  ILE36       0.0022
     64  CG2       38.4990  -14.5610   -9.2040 C.3    36  ILE36       0.0022
     65  CD1       39.9310  -15.1930   -6.6070 C.3    36  ILE36       0.0001
     66  N         42.7290  -18.2670  -11.1930 N.3    39  VAL39      -0.1245
     67  CA        42.0330  -19.5110  -10.8520 C.3    39  VAL39       0.1561
     68  C         40.8570  -19.7170  -11.7960 C.2    39  VAL39       0.2260
     69  O         40.5520  -20.8370  -12.1920 O.2    39  VAL39      -0.2867
     70  CB        41.5630  -19.6010   -9.3620 C.3    39  VAL39       0.0252
     71  CG1       42.7210  -19.4410   -8.3870 C.3    39  VAL39       0.0019
     72  CG2       40.4260  -18.6110   -9.0770 C.3    39  VAL39       0.0019
     73  N         33.1720  -13.2880  -10.7170 N.3    94  TYR94      -0.1241
     74  CA        33.2330  -14.2390   -9.6260 C.3    94  TYR94       0.1605
     75  C         32.5480  -13.6280   -8.4110 C.2    94  TYR94       0.2264
     76  O         31.7760  -14.2980   -7.7180 O.2    94  TYR94      -0.2867
     77  CB        34.7210  -14.5150   -9.3850 C.3    94  TYR94       0.0534
     78  CG        35.2020  -15.1480   -8.0830 C.ar   94  TYR94      -0.0201
     79  CD1       35.5060  -16.5170   -8.0130 C.ar   94  TYR94      -0.0009
     80  CD2       35.4490  -14.3630   -6.9580 C.ar   94  TYR94      -0.0009
     81  CE1       36.0060  -17.0890   -6.8400 C.ar   94  TYR94       0.0417
     82  CE2       35.9470  -14.9230   -5.7910 C.ar   94  TYR94       0.0417
     83  CZ        36.2250  -16.2760   -5.7350 C.ar   94  TYR94       0.1957
     84  OH        36.7160  -16.8020   -4.5640 O.3    94  TYR94      -0.2866
     85  N         32.8340  -25.2760   -8.7440 N.3   110  PHE110     -0.1227
     86  CA        34.2040  -24.8400   -8.6600 C.3   110  PHE110      0.1736
     87  C         35.0150  -25.8930   -7.9020 C.2   110  PHE110      0.2595
     88  O         36.0570  -26.3370   -8.3770 O.2   110  PHE110     -0.2718
     89  CB        34.2430  -23.4730   -7.9590 C.3   110  PHE110      0.0547
     90  CG        35.5960  -22.8160   -7.9710 C.ar  110  PHE110     -0.0202
     91  CD1       36.6690  -23.3790   -7.2860 C.ar  110  PHE110     -0.0042
     92  CD2       35.7880  -21.6200   -8.6430 C.ar  110  PHE110     -0.0042
     93  CE1       37.9300  -22.7670   -7.2870 C.ar  110  PHE110     -0.0003
     94  CE2       37.0270  -20.9980   -8.6570 C.ar  110  PHE110     -0.0003
     95  CZ        38.1130  -21.5780   -7.9710 C.ar  110  PHE110     -0.0000
     96  N         34.5290  -26.2890   -6.7260 N.am  111  ASP111     -0.1974
     97  CA        35.2080  -27.2870   -5.8970 C.3   111  ASP111      0.1709
     98  C         35.4040  -28.5640   -6.7040 C.2   111  ASP111      0.2293
     99  O         36.4910  -29.1410   -6.7330 O.2   111  ASP111     -0.2864
    100  CB        34.3630  -27.6190   -4.6640 C.3   111  ASP111      0.1436
    101  CG        34.5190  -26.6020   -3.5480 C.2   111  ASP111      0.3671
    102  OD1       35.3620  -25.6760   -3.6540 O.co2 111  ASP111     -0.2456
    103  OD2       33.7820  -26.7380   -2.5570 O.co2 111  ASP111     -0.2456
    104  N         38.0490  -28.1870   -9.5760 N.3   114  GLU114     -0.1245
    105  CA        39.3890  -28.1710   -9.0070 C.3   114  GLU114      0.1567
    106  C         39.8640  -29.5840   -8.6960 C.2   114  GLU114      0.2260
    107  O         41.0000  -29.9460   -9.0030 O.2   114  GLU114     -0.2867
    108  CB        39.4220  -27.3140   -7.7400 C.3   114  GLU114      0.0388
    109  CG        40.8220  -27.0070   -7.2340 C.3   114  GLU114      0.1160
    110  CD        40.8180  -26.3400   -5.8730 C.2   114  GLU114      0.3649
    111  OE1       39.7190  -26.0600   -5.3500 O.co2 114  GLU114     -0.2457
    112  OE2       41.9140  -26.0950   -5.3260 O.co2 114  GLU114     -0.2457
    113  N         37.1550  -32.9890    0.1080 N.3   135  MET135     -0.1245
    114  CA        37.5390  -31.5740   -0.0320 C.3   135  MET135      0.1570
    115  C         38.0250  -30.9840    1.2990 C.2   135  MET135      0.2261
    116  O         39.0120  -30.2500    1.3460 O.2   135  MET135     -0.2867
    117  CB        36.3750  -30.7650   -0.6300 C.3   135  MET135      0.0387
    118  CG        36.6810  -29.2930   -0.9600 C.3   135  MET135      0.0595
    119  SD        37.7210  -29.0240   -2.4190 S.3   135  MET135     -0.1393
    120  CE        39.2090  -28.4760   -1.6150 C.3   135  MET135      0.0692
    121  N         41.8210  -29.6410    1.8360 N.3   139  ASP139     -0.1239
    122  CA        42.1500  -28.3360    2.4160 C.3   139  ASP139      0.1674
    123  C         43.0400  -28.4230    3.6470 C.2   139  ASP139      0.2266
    124  O         43.9440  -27.6040    3.8300 O.2   139  ASP139     -0.2867
    125  CB        40.8710  -27.5820    2.7510 C.3   139  ASP139      0.1410
    126  CG        40.2390  -26.9680    1.5270 C.2   139  ASP139      0.3668
    127  OD1       40.9690  -26.7910    0.5320 O.co2 139  ASP139     -0.2456
    128  OD2       39.0300  -26.6560    1.5560 O.co2 139  ASP139     -0.2456
@<TRIPOS>BOND
     1    69    68    2
     2    68    67    1
     3    61    60    2
     4    66    67    1
     5    67    70    1
     6    60    59    1
     7    73    74    1
     8     1     2    1
     9    74    77    1
    10    74    75    1
    11   104   105    1
    12    51    50    2
    13    77    78    1
    14    70    72    1
    15    70    71    1
    16    59    58    1
    17    59    62    1
    18     7     5    1
    19    64    62    1
    20   105   106    1
    21   105   108    1
    22   107   106    2
    23    50    58   am
    24    50    49    1
    25     2     5    1
    26     2     3    1
    27    48    49    1
    28    62    63    1
    29    85    86    1
    30    86    89    1
    31    86    87    1
    32    94    92   ar
    33    94    95   ar
    34    92    90   ar
    35    49    52    1
    36    75    76    2
    37    88    87    2
    38     5     6    1
    39    78    79   ar
    40    78    80   ar
    41    79    81   ar
    42    95    93   ar
    43    90    89    1
    44    90    91   ar
    45     3     4    2
    46    87    96   am
    47   108   109    1
    48    93    91   ar
    49    63    65    1
    50   109   110    1
    51    52    53    1
    52    80    82   ar
    53    81    83   ar
    54    99    98    2
    55    96    97    1
    56    98    97    1
    57    54    53   ar
    58    54    56   ar
    59    53    55   ar
    60     8     9    1
    61    56    57   ar
    62    97   100    1
    63   110   111   ar
    64   110   112   ar
    65    82    83   ar
    66    83    84    1
    67    55    57   ar
    68     9    10    1
    69     9    12    1
    70    47    46    1
    71   100   101    1
    72    44    46   ar
    73    44    42   ar
    74    10    11    2
    75    13    12    1
    76    13    14    1
    77    46    45   ar
    78    42    41   ar
    79    16    14   ar
    80   102   101   ar
    81    14    15   ar
    82   101   103   ar
    83    34    33    1
    84    45    43   ar
    85    41    43   ar
    86    41    40    1
    87   119   120    1
    88   119   118    1
    89    23    21    1
    90    35    33    1
    91    33    32    2
    92    40    37    1
    93    20    19    2
    94    37    38    1
    95    37    36    1
    96    24    22    1
    97   118   117    1
    98    30    31    1
    99    30    29    1
   100    21    22    1
   101    21    18    1
   102    39    38    2
   103    32    31    1
   104   117   114    1
   105    19    18    1
   106    19    25   am
   107    28    27    2
   108    26    29    1
   109    26    25    1
   110    26    27    1
   111    18    17    1
   112   114   113    1
   113   114   115    1
   114   127   126   ar
   115   115   116    2
   116   126   128   ar
   117   126   125    1
   118   121   122    1
   119   122   125    1
   120   122   123    1
   121   123   124    2
