@<TRIPOS>MOLECULE
tmp/2qerA00.pdb
 100 93 0 0 0
SMALL
GASTEIGER

@<TRIPOS>ATOM
      1  N        -17.3800   18.1840   -5.2760 N.3    44  LYS44      -0.1245
      2  CA       -16.1180   18.4220   -4.5810 C.3    44  LYS44       0.1561
      3  C        -15.5590   19.7830   -4.9600 C.2    44  LYS44       0.2260
      4  O        -15.3940   20.0870   -6.1380 O.2    44  LYS44      -0.2867
      5  CB       -15.1140   17.3060   -4.8890 C.3    44  LYS44       0.0271
      6  CG       -13.7410   17.5110   -4.2720 C.3    44  LYS44       0.0035
      7  CD       -12.9460   16.2200   -4.2860 C.3    44  LYS44       0.0206
      8  CE       -12.4400   15.8910   -5.6640 C.3    44  LYS44       0.1093
      9  NZ       -11.9170   14.5030   -5.6980 N.3    44  LYS44      -0.1314
     10  N        -12.4530   22.3080   -3.5300 N.3    46  ILE46      -0.1245
     11  CA       -11.2870   22.4790   -2.6630 C.3    46  ILE46       0.1561
     12  C        -10.5310   23.7420   -3.0720 C.2    46  ILE46       0.2260
     13  O         -9.8950   23.7870   -4.1300 O.2    46  ILE46      -0.2867
     14  CB       -10.3520   21.2260   -2.6930 C.3    46  ILE46       0.0252
     15  CG1      -11.1210   19.9760   -2.2490 C.3    46  ILE46       0.0019
     16  CG2       -9.1150   21.4420   -1.8110 C.3    46  ILE46       0.0019
     17  CD1      -10.4450   18.6520   -2.5640 C.3    46  ILE46       0.0001
     18  N         -7.1590   24.3730   -5.0520 N.3    49  PHE49      -0.1227
     19  CA        -6.8860   23.0960   -5.7020 C.3    49  PHE49       0.1736
     20  C         -7.7860   22.9030   -6.9330 C.2    49  PHE49       0.2595
     21  O         -7.4570   23.3850   -8.0210 O.2    49  PHE49      -0.2718
     22  CB        -7.0090   21.9520   -4.6830 C.3    49  PHE49       0.0547
     23  CG        -6.5470   20.6090   -5.1930 C.ar   49  PHE49      -0.0202
     24  CD1       -5.3080   20.4640   -5.8170 C.ar   49  PHE49      -0.0042
     25  CD2       -7.3440   19.4770   -5.0140 C.ar   49  PHE49      -0.0042
     26  CE1       -4.8830   19.2170   -6.2830 C.ar   49  PHE49      -0.0003
     27  CE2       -6.9350   18.2310   -5.4750 C.ar   49  PHE49      -0.0003
     28  CZ        -5.6960   18.0980   -6.1080 C.ar   49  PHE49      -0.0000
     29  N         -8.9170   22.2200   -6.7590 N.am   50  ILE50      -0.1980
     30  CA        -9.8180   21.8890   -7.8710 C.3    50  ILE50       0.1595
     31  C        -11.2960   21.9460   -7.4610 C.2    50  ILE50       0.2287
     32  O        -11.6260   21.9080   -6.2700 O.2    50  ILE50      -0.2864
     33  CB        -9.5360   20.4620   -8.4490 C.3    50  ILE50       0.0276
     34  CG1       -9.9340   19.3810   -7.4310 C.3    50  ILE50       0.0022
     35  CG2       -8.0710   20.3160   -8.9190 C.3    50  ILE50       0.0022
     36  CD1      -10.0060   17.9740   -7.9880 C.3    50  ILE50       0.0001
     37  N        -14.6730   19.6700   -8.7980 N.3    52  GLN52      -0.1245
     38  CA       -15.0200   18.4870   -9.5830 C.3    52  GLN52       0.1566
     39  C        -16.5270   18.2300   -9.6420 C.2    52  GLN52       0.2260
     40  O        -17.2070   18.2820   -8.6170 O.2    52  GLN52      -0.2867
     41  CB       -14.3360   17.2630   -8.9850 C.3    52  GLN52       0.0367
     42  CG       -14.5720   15.9670   -9.7250 C.3    52  GLN52       0.0905
     43  CD       -13.6460   14.8950   -9.2470 C.2    52  GLN52       0.2608
     44  OE1      -12.5160   15.1800   -8.8460 O.2    52  GLN52      -0.2717
     45  NE2      -14.1070   13.6530   -9.2710 N.am   52  GLN52      -0.0878
     46  N        -19.7940   11.2050   -6.6540 N.3    60  GLY60      -0.1225
     47  CA       -18.3680   11.1200   -6.9580 C.3    60  GLY60       0.1811
     48  C        -17.9540    9.7240   -7.3710 C.2    60  GLY60       0.2280
     49  O        -16.7830    9.4770   -7.6650 O.2    60  GLY60      -0.2866
     50  N        -11.5480   13.5450  -14.6670 N.3    90  ALA90      -0.1231
     51  CA       -11.2700   12.8100  -13.4410 C.3    90  ALA90       0.1694
     52  C        -11.0470   11.3380  -13.7740 C.2    90  ALA90       0.2592
     53  O        -11.5410   10.8490  -14.7890 O.2    90  ALA90      -0.2718
     54  CB       -12.4330   12.9680  -12.4680 C.3    90  ALA90       0.0304
     55  N        -10.2800   10.6420  -12.9390 N.am   91  SER91      -0.1952
     56  CA       -10.0830    9.1920  -13.0690 C.3    91  SER91       0.1924
     57  C         -9.5060    8.5900  -11.7920 C.2    91  SER91       0.2314
     58  O         -8.9170    9.2990  -10.9760 O.2    91  SER91      -0.2863
     59  CB        -9.1850    8.8410  -14.2600 C.3    91  SER91       0.2116
     60  OG        -7.9410    9.5220  -14.2000 O.3    91  SER91      -0.2180
     61  N        -16.9610   12.3300  -15.3040 N.3   102  GLN102     -0.1245
     62  CA       -16.5480   13.3270  -14.3120 C.3   102  GLN102      0.1566
     63  C        -15.3470   14.1130  -14.8000 C.2   102  GLN102      0.2260
     64  O        -14.4280   13.5520  -15.4020 O.2   102  GLN102     -0.2867
     65  CB       -16.2350   12.6880  -12.9640 C.3   102  GLN102      0.0367
     66  CG       -17.4570   12.1700  -12.2200 C.3   102  GLN102      0.0905
     67  CD       -17.0990   11.6240  -10.8650 C.2   102  GLN102      0.2608
     68  OE1      -16.4600   12.3050  -10.0590 O.2   102  GLN102     -0.2717
     69  NE2      -17.5110   10.3920  -10.5950 N.am  102  GLN102     -0.0878
     70  N        -12.8700   17.9260  -13.8300 N.3   104  PHE104     -0.1241
     71  CA       -12.5330   18.9580  -12.8470 C.3   104  PHE104      0.1605
     72  C        -11.9160   20.1890  -13.4790 C.2   104  PHE104      0.2264
     73  O        -11.4140   20.1360  -14.6090 O.2   104  PHE104     -0.2867
     74  CB       -11.6770   18.4020  -11.6920 C.3   104  PHE104      0.0534
     75  CG       -10.2990   17.9210  -12.0960 C.ar  104  PHE104     -0.0203
     76  CD1       -9.1970   18.7880  -12.0560 C.ar  104  PHE104     -0.0042
     77  CD2      -10.0920   16.5920  -12.4620 C.ar  104  PHE104     -0.0042
     78  CE1       -7.9090   18.3390  -12.4020 C.ar  104  PHE104     -0.0003
     79  CE2       -8.8090   16.1300  -12.8160 C.ar  104  PHE104     -0.0003
     80  CZ        -7.7170   17.0070  -12.7790 C.ar  104  PHE104     -0.0000
     81  N          0.1140   17.2960  -10.7260 N.3   113  LEU113     -0.1245
     82  CA        -0.9260   16.5900  -11.4780 C.3   113  LEU113      0.1561
     83  C         -0.5130   16.2560  -12.9130 C.2   113  LEU113      0.2260
     84  O         -1.1840   15.4730  -13.5880 O.2   113  LEU113     -0.2867
     85  CB        -2.2510   17.3770  -11.4630 C.3   113  LEU113      0.0270
     86  CG        -2.9610   17.6830  -10.1350 C.3   113  LEU113      0.0019
     87  CD1       -4.3690   18.2180  -10.4060 C.3   113  LEU113      0.0001
     88  CD2       -3.0250   16.4650   -9.2240 C.3   113  LEU113      0.0001
     89  N         -3.7910   13.1440  -15.1480 N.3   117  TYR117     -0.1241
     90  CA        -5.1540   13.2520  -15.6750 C.3   117  TYR117      0.1605
     91  C         -5.1290   13.9000  -17.0480 C.2   117  TYR117      0.2264
     92  O         -4.2350   14.6890  -17.3520 O.2   117  TYR117     -0.2867
     93  CB        -6.0550   14.0680  -14.7280 C.3   117  TYR117      0.0534
     94  CG        -6.0820   13.5200  -13.3120 C.ar  117  TYR117     -0.0201
     95  CD1       -5.2390   14.0430  -12.3320 C.ar  117  TYR117     -0.0009
     96  CD2       -6.9310   12.4660  -12.9600 C.ar  117  TYR117     -0.0009
     97  CE1       -5.2320   13.5370  -11.0410 C.ar  117  TYR117      0.0417
     98  CE2       -6.9370   11.9530  -11.6590 C.ar  117  TYR117      0.0417
     99  CZ        -6.0820   12.4970  -10.7090 C.ar  117  TYR117      0.1957
    100  OH        -6.0660   12.0150   -9.4210 O.3   117  TYR117     -0.2866
@<TRIPOS>BOND
     1    92    91    2
     2    91    90    1
     3    90    89    1
     4    90    93    1
     5    64    63    2
     6    61    62    1
     7    63    62    1
     8    53    52    2
     9    93    94    1
    10    50    51    1
    11    73    72    2
    12    62    65    1
    13    59    60    1
    14    59    56    1
    15    70    71    1
    16    52    51    1
    17    52    55   am
    18    84    83    2
    19    72    71    1
    20    51    54    1
    21    94    96   ar
    22    94    95   ar
    23    56    55    1
    24    56    57    1
    25    65    66    1
    26    96    98   ar
    27    83    82    1
    28    71    74    1
    29    79    80   ar
    30    79    77   ar
    31    80    78   ar
    32    77    75   ar
    33    78    76   ar
    34    95    97   ar
    35    66    67    1
    36    75    76   ar
    37    75    74    1
    38    57    58    2
    39    98    99   ar
    40    82    85    1
    41    82    81    1
    42    85    86    1
    43    97    99   ar
    44    67    69   am
    45    67    68    2
    46    99   100    1
    47    87    86    1
    48    86    88    1
    49    42    43    1
    50    42    41    1
    51    39    38    1
    52    39    40    2
    53    38    41    1
    54    38    37    1
    55    45    43   am
    56    43    44    2
    57    35    33    1
    58    33    30    1
    59    33    34    1
    60    21    20    2
    61    36    34    1
    62    30    31    1
    63    30    29    1
    64    49    48    2
    65    31    32    2
    66    48    47    1
    67    47    46    1
    68    20    29   am
    69    20    19    1
    70    26    28   ar
    71    26    24   ar
    72     4     3    2
    73    28    27   ar
    74    24    23   ar
    75    19    18    1
    76    19    22    1
    77     9     8    1
    78     8     7    1
    79    27    25   ar
    80     1     2    1
    81    23    25   ar
    82    23    22    1
    83     3     2    1
    84     5     2    1
    85     5     6    1
    86     7     6    1
    87    13    12    2
    88    10    11    1
    89    12    11    1
    90    14    11    1
    91    14    15    1
    92    14    16    1
    93    17    15    1
