@<TRIPOS>MOLECULE
tmp/2qeuB00.pdb
 101 94 0 0 0
SMALL
GASTEIGER

@<TRIPOS>ATOM
      1  N         45.9900  -13.6300    8.0840 N.3    20  PRO20      -0.2116
      2  CA        47.2560  -13.4800    8.8070 C.3    20  PRO20       0.1372
      3  C         47.1770  -12.6170   10.0650 C.2    20  PRO20       0.2244
      4  O         46.3600  -11.7050   10.1360 O.2    20  PRO20      -0.2868
      5  CB        48.1710  -12.8210    7.7710 C.3    20  PRO20       0.0268
      6  CG        47.5530  -13.1790    6.4180 C.3    20  PRO20       0.0207
      7  CD        46.0800  -13.2520    6.6650 C.3    20  PRO20       0.0892
      8  N         49.0250  -10.2120   11.3120 N.3    22  ALA22      -0.1231
      9  CA        49.1720   -8.7740   11.0850 C.3    22  ALA22       0.1694
     10  C         47.8210   -8.1720   10.7270 C.2    22  ALA22       0.2591
     11  O         47.5020   -7.0790   11.1730 O.2    22  ALA22      -0.2718
     12  CB        50.1900   -8.4690    9.9880 C.3    22  ALA22       0.0304
     13  N         47.0470   -8.8710    9.8910 N.am   23  LEU23      -0.1980
     14  CA        45.7440   -8.3460    9.4620 C.3    23  LEU23       0.1596
     15  C         44.6630   -8.5220   10.5550 C.2    23  LEU23       0.2287
     16  O         43.7640   -7.7100   10.6730 O.2    23  LEU23      -0.2864
     17  CB        45.3260   -8.9690    8.1200 C.3    23  LEU23       0.0297
     18  CG        46.1560   -8.5760    6.8890 C.3    23  LEU23       0.0022
     19  CD1       45.6960   -9.3620    5.6220 C.3    23  LEU23       0.0001
     20  CD2       46.0950   -7.0920    6.6740 C.3    23  LEU23       0.0001
     21  N         41.2210   -1.8640    2.7030 N.3    37  TYR37      -0.1241
     22  CA        42.3230   -2.7290    2.2650 C.3    37  TYR37       0.1605
     23  C         41.8160   -4.0820    1.8020 C.2    37  TYR37       0.2264
     24  O         42.2550   -4.5730    0.7700 O.2    37  TYR37      -0.2867
     25  CB        43.3500   -2.9190    3.3740 C.3    37  TYR37       0.0534
     26  CG        44.4670   -3.8140    2.9510 C.ar   37  TYR37      -0.0201
     27  CD1       45.4820   -3.3280    2.1270 C.ar   37  TYR37      -0.0009
     28  CD2       44.4820   -5.1610    3.3050 C.ar   37  TYR37      -0.0009
     29  CE1       46.4900   -4.1420    1.7060 C.ar   37  TYR37       0.0417
     30  CE2       45.5170   -5.9880    2.8900 C.ar   37  TYR37       0.0417
     31  CZ        46.5070   -5.4690    2.0820 C.ar   37  TYR37       0.1957
     32  OH        47.5420   -6.2600    1.6670 O.3    37  TYR37      -0.2866
     33  N         42.2130   -5.7300   -1.8610 N.3    40  ARG40      -0.1245
     34  CA        42.8300   -7.0620   -2.0010 C.3    40  ARG40       0.1563
     35  C         41.9360   -8.0190   -2.7770 C.2    40  ARG40       0.2260
     36  O         42.3930   -8.8120   -3.5880 O.2    40  ARG40      -0.2867
     37  CB        43.0410   -7.6580   -0.6070 C.3    40  ARG40       0.0307
     38  CG        44.0840   -8.7010   -0.5540 C.3    40  ARG40       0.0489
     39  CD        44.1520   -9.2940    0.8160 C.3    40  ARG40       0.2205
     40  NE        45.3400  -10.1220    0.9010 N.pl3  40  ARG40      -0.0865
     41  CZ        45.3930  -11.3910    0.5170 C.cat  40  ARG40       0.5346
     42  NH1       44.3110  -12.0320    0.0790 N.pl3  40  ARG40       0.1354
     43  NH2       46.5430  -12.0280    0.5920 N.pl3  40  ARG40       0.1354
     44  N         53.4580  -12.0710   -5.6750 N.3    61  LEU61      -0.1245
     45  CA        53.4900  -11.7000   -4.2490 C.3    61  LEU61       0.1561
     46  C         54.5980  -12.4090   -3.5000 C.2    61  LEU61       0.2260
     47  O         55.2510  -11.8160   -2.6320 O.2    61  LEU61      -0.2867
     48  CB        52.1130  -11.8310   -3.6340 C.3    61  LEU61       0.0270
     49  CG        51.1510  -10.7730   -4.1370 C.3    61  LEU61       0.0019
     50  CD1       49.6920  -11.2360   -3.8260 C.3    61  LEU61       0.0001
     51  CD2       51.4590   -9.4240   -3.5910 C.3    61  LEU61       0.0001
     52  N         57.4570  -10.4180   -1.5720 N.3    65  ASP65      -0.1239
     53  CA        57.7690  -10.7180   -0.1850 C.3    65  ASP65       0.1674
     54  C         59.2400  -11.1480   -0.0130 C.2    65  ASP65       0.2266
     55  O         59.8270  -10.8890    1.0500 O.2    65  ASP65      -0.2867
     56  CB        56.8280  -11.7460    0.4070 C.3    65  ASP65       0.1410
     57  CG        55.4720  -11.1680    0.7500 C.2    65  ASP65       0.3668
     58  OD1       55.3350   -9.9320    0.7250 O.co2  65  ASP65      -0.2456
     59  OD2       54.5560  -11.9460    1.1020 O.co2  65  ASP65      -0.2456
     60  N         61.0460   -7.8640    0.0110 N.3    68  ARG68      -0.1245
     61  CA        60.7420   -7.0330    1.1750 C.3    68  ARG68       0.1563
     62  C         61.2310   -7.6970    2.4690 C.2    68  ARG68       0.2260
     63  O         61.2320   -7.0520    3.5270 O.2    68  ARG68      -0.2867
     64  CB        59.2360   -6.7450    1.1940 C.3    68  ARG68       0.0307
     65  CG        58.7730   -5.7210    2.2210 C.3    68  ARG68       0.0489
     66  CD        59.4880   -4.3440    2.1180 C.3    68  ARG68       0.2205
     67  NE        58.9530   -3.3860    3.1130 N.pl3  68  ARG68      -0.0865
     68  CZ        57.9800   -2.4940    2.8960 C.cat  68  ARG68       0.5346
     69  NH1       57.4320   -2.3460    1.6990 N.pl3  68  ARG68       0.1354
     70  NH2       57.5760   -1.7210    3.9000 N.pl3  68  ARG68       0.1354
     71  N         59.7060  -10.4400    3.9650 N.3    70  GLU70      -0.1245
     72  CA        58.5810  -10.7810    4.8250 C.3    70  GLU70       0.1567
     73  C         58.4040  -12.2920    4.7520 C.2    70  GLU70       0.2260
     74  O         57.8140  -12.8000    3.8110 O.2    70  GLU70      -0.2867
     75  CB        57.3000  -10.0350    4.4750 C.3    70  GLU70       0.0388
     76  CG        56.4680   -9.7310    5.7580 C.3    70  GLU70       0.1160
     77  CD        56.0090  -10.9810    6.5480 C.2    70  GLU70       0.3649
     78  OE1       56.7130  -11.5270    7.4670 O.co2  70  GLU70      -0.2457
     79  OE2       54.8700  -11.3600    6.2890 O.co2  70  GLU70      -0.2457
     80  N         54.5970  -13.7100    5.2130 N.3    73  GLY73      -0.1225
     81  CA        53.9270  -13.5000    3.9540 C.3    73  GLY73       0.1811
     82  C         54.4240  -14.3650    2.8250 C.2    73  GLY73       0.2280
     83  O         53.6190  -14.8700    2.0500 O.2    73  GLY73      -0.2866
     84  N         52.9270  -17.7250    3.3220 N.3    76  ASN76      -0.1225
     85  CA        51.4890  -17.6410    3.0420 C.3    76  ASN76       0.1785
     86  C         51.1380  -17.5700    1.5410 C.2    76  ASN76       0.2597
     87  O         50.2010  -18.2300    1.0870 O.2    76  ASN76      -0.2718
     88  CB        50.8130  -16.4900    3.8230 C.3    76  ASN76       0.1169
     89  CG        50.7640  -16.7610    5.3360 C.2    76  ASN76       0.2627
     90  OD1       50.7870  -17.9220    5.7620 O.2    76  ASN76      -0.2716
     91  ND2       50.6630  -15.7030    6.1330 N.am   76  ASN76      -0.0877
     92  N         51.8760  -16.7480    0.7900 N.am   77  HIS77      -0.1975
     93  CA        51.6570  -16.6460   -0.6520 C.3    77  HIS77       0.1656
     94  C         52.1590  -17.8740   -1.4390 C.2    77  HIS77       0.2291
     95  O         51.5900  -18.2340   -2.4990 O.2    77  HIS77      -0.2864
     96  CB        52.2050  -15.3200   -1.1930 C.3    77  HIS77       0.0771
     97  CG        51.3880  -14.1380   -0.7850 C.ar   77  HIS77       0.0820
     98  ND1       50.1420  -13.8890   -1.3080 N.ar   77  HIS77      -0.2267
     99  CD2       51.6250  -13.1510    0.1150 C.ar   77  HIS77       0.1154
    100  CE1       49.6370  -12.8110   -0.7390 C.ar   77  HIS77       0.1986
    101  NE2       50.5070  -12.3520    0.1380 N.ar   77  HIS77      -0.2212
@<TRIPOS>BOND
     1    44    45    1
     2    45    48    1
     3    45    46    1
     4    49    50    1
     5    49    48    1
     6    49    51    1
     7    36    35    2
     8    46    47    2
     9    35    34    1
    10    95    94    2
    11    34    33    1
    12    34    37    1
    13    52    53    1
    14    94    93    1
    15    98    97   ar
    16    98   100   ar
    17    96    97    1
    18    96    93    1
    19    97    99   ar
    20   100   101   ar
    21    93    92    1
    22    37    38    1
    23    38    39    1
    24    53    54    1
    25    53    56    1
    26    54    55    2
    27    60    61    1
    28    42    41    1
    29    99   101   ar
    30    56    57    1
    31    41    43    1
    32    41    40    2
    33    58    57   ar
    34    57    59   ar
    35    24    23    2
    36    92    86   am
    37    39    40    1
    38    87    86    2
    39    61    64    1
    40    61    62    1
    41    64    65    1
    42    86    85    1
    43    32    31    1
    44    69    68    1
    45    29    31   ar
    46    29    27   ar
    47    23    22    1
    48    83    82    2
    49    31    30   ar
    50    66    65    1
    51    66    67    1
    52    27    26   ar
    53    22    21    1
    54    22    25    1
    55    62    63    2
    56    82    81    1
    57    30    28   ar
    58    68    67    2
    59    68    70    1
    60    26    28   ar
    61    26    25    1
    62    85    84    1
    63    85    88    1
    64    74    73    2
    65    88    89    1
    66    81    80    1
    67    71    72    1
    68    75    72    1
    69    75    76    1
    70    73    72    1
    71    89    90    2
    72    89    91   am
    73    19    18    1
    74    76    77    1
    75    79    77   ar
    76     6     7    1
    77     6     5    1
    78    77    78   ar
    79     7     1    1
    80    20    18    1
    81    18    17    1
    82     5     2    1
    83     1     2    1
    84    17    14    1
    85     2     3    1
    86    14    13    1
    87    14    15    1
    88    13    10   am
    89    12     9    1
    90     3     4    2
    91    15    16    2
    92    10     9    1
    93    10    11    2
    94     9     8    1
