@<TRIPOS>MOLECULE
tmp/2qf2B00.pdb
 109 102 0 0 0
SMALL
GASTEIGER

@<TRIPOS>ATOM
      1  N          2.4940    7.1170  -45.0930 N.3    79  ARG79      -0.1245
      2  CA         3.1650    6.1040  -45.9030 C.3    79  ARG79       0.1563
      3  C          2.2590    5.6730  -47.0500 C.2    79  ARG79       0.2260
      4  O          1.0390    5.5240  -46.8760 O.2    79  ARG79      -0.2867
      5  CB         3.4880    4.8700  -45.0640 C.3    79  ARG79       0.0307
      6  CG         4.6430    5.0240  -44.0860 C.3    79  ARG79       0.0489
      7  CD         4.9870    3.6670  -43.4710 C.3    79  ARG79       0.2205
      8  NE         3.9050    3.1440  -42.6350 N.pl3  79  ARG79      -0.0865
      9  CZ         3.0370    2.2010  -42.9970 C.cat  79  ARG79       0.5346
     10  NH1        3.0900    1.6370  -44.1980 N.pl3  79  ARG79       0.1354
     11  NH2        2.0940    1.8190  -42.1470 N.pl3  79  ARG79       0.1354
     12  N          7.1050   12.9460  -45.1480 N.3   227  TYR227     -0.1241
     13  CA         6.2630   12.4770  -44.0470 C.3   227  TYR227      0.1605
     14  C          6.7250   11.1960  -43.3680 C.2   227  TYR227      0.2264
     15  O          7.0620   10.2110  -44.0330 O.2   227  TYR227     -0.2867
     16  CB         4.8190   12.2940  -44.5200 C.3   227  TYR227      0.0534
     17  CG         3.8380   12.3090  -43.3750 C.ar  227  TYR227     -0.0201
     18  CD1        3.1450   13.4780  -43.0460 C.ar  227  TYR227     -0.0009
     19  CD2        3.6120   11.1640  -42.6080 C.ar  227  TYR227     -0.0009
     20  CE1        2.2410   13.5030  -41.9820 C.ar  227  TYR227      0.0417
     21  CE2        2.7180   11.1780  -41.5380 C.ar  227  TYR227      0.0417
     22  CZ         2.0370   12.3570  -41.2360 C.ar  227  TYR227      0.1957
     23  OH         1.1450   12.3860  -40.1900 O.3   227  TYR227     -0.2866
     24  N          6.9720    7.8130  -41.9800 N.3   229  GLY229     -0.1225
     25  CA         7.6070    6.5610  -42.3970 C.3   229  GLY229      0.1811
     26  C          8.3010    6.5990  -43.7430 C.2   229  GLY229      0.2280
     27  O          9.0750    5.6930  -44.0690 O.2   229  GLY229     -0.2866
     28  N         12.4360    4.7750  -38.9730 N.3   235  LYS235     -0.1231
     29  CA        11.1120    4.3620  -38.4470 C.3   235  LYS235      0.1693
     30  C         10.5730    2.9830  -38.8880 C.2   235  LYS235      0.2591
     31  O         10.1540    2.1730  -38.0330 O.2   235  LYS235     -0.2718
     32  CB        10.0570    5.4480  -38.7460 C.3   235  LYS235      0.0285
     33  CG         8.6540    5.1800  -38.1480 C.3   235  LYS235      0.0035
     34  CD         8.5820    5.5230  -36.6720 C.3   235  LYS235      0.0206
     35  CE         7.5890    4.6370  -35.9410 C.3   235  LYS235      0.1093
     36  NZ         8.2560    3.4620  -35.3370 N.3   235  LYS235     -0.1314
     37  N         10.5570    2.7500  -40.2020 N.am  236  LYS236     -0.1980
     38  CA        10.0800    1.4930  -40.8040 C.3   236  LYS236      0.1596
     39  C         11.0730    0.9390  -41.8280 C.2   236  LYS236      0.2287
     40  O         11.3170   -0.2730  -41.8840 O.2   236  LYS236     -0.2864
     41  CB         8.7130    1.6870  -41.4830 C.3   236  LYS236      0.0298
     42  CG         7.5500    2.0930  -40.5510 C.3   236  LYS236      0.0038
     43  CD         7.3120    1.0630  -39.4390 C.3   236  LYS236      0.0206
     44  CE         6.0570    1.3630  -38.6850 C.3   236  LYS236      0.1093
     45  NZ         5.8180    0.3620  -37.6150 N.3   236  LYS236     -0.1314
     46  N          7.5580   -6.0210  -35.6110 N.3   256  HIS256     -0.1241
     47  CA         6.6330   -4.9320  -35.3340 C.3   256  HIS256      0.1621
     48  C          5.9760   -5.1780  -33.9810 C.2   256  HIS256      0.2264
     49  O          4.7740   -5.4620  -33.8970 O.2   256  HIS256     -0.2867
     50  CB         5.6000   -4.8910  -36.4640 C.3   256  HIS256      0.0745
     51  CG         4.7410   -3.6620  -36.4800 C.ar  256  HIS256      0.0817
     52  ND1        3.5030   -3.6400  -37.0860 N.ar  256  HIS256     -0.2268
     53  CD2        4.9410   -2.4150  -35.9870 C.ar  256  HIS256      0.1154
     54  CE1        2.9780   -2.4320  -36.9670 C.ar  256  HIS256      0.1986
     55  NE2        3.8280   -1.6720  -36.3020 N.ar  256  HIS256     -0.2212
     56  N         -1.3510   -1.7180  -36.9550 N.3   278  SER278     -0.1217
     57  CA        -1.5950   -0.3110  -36.6540 C.3   278  SER278      0.1889
     58  C         -3.0370   -0.0890  -36.2080 C.2   278  SER278      0.2288
     59  O         -3.9610   -0.7050  -36.7470 O.2   278  SER278     -0.2866
     60  CB        -1.2780    0.5450  -37.8810 C.3   278  SER278      0.2089
     61  OG         0.0100    0.2210  -38.3840 O.3   278  SER278     -0.2183
     62  N          6.5880   -0.0740  -30.6140 N.3   303  ASP303     -0.1239
     63  CA         6.4500   -0.3020  -32.0660 C.3   303  ASP303      0.1674
     64  C          7.3950   -1.3420  -32.6750 C.2   303  ASP303      0.2266
     65  O          6.9510   -2.2000  -33.4250 O.2   303  ASP303     -0.2867
     66  CB         6.5580    1.0270  -32.8340 C.3   303  ASP303      0.1410
     67  CG         6.0870    0.9200  -34.2920 C.2   303  ASP303      0.3668
     68  OD1        4.9300    0.5160  -34.5470 O.co2 303  ASP303     -0.2456
     69  OD2        6.8660    1.2920  -35.1870 O.co2 303  ASP303     -0.2456
     70  N          6.5660    7.5810  -32.0050 N.3   325  PHE325     -0.1241
     71  CA         5.9620    8.2560  -33.1470 C.3   325  PHE325      0.1605
     72  C          4.5160    7.7770  -33.2390 C.2   325  PHE325      0.2264
     73  O          4.1700    6.9380  -34.0830 O.2   325  PHE325     -0.2867
     74  CB         6.7430    7.9430  -34.4320 C.3   325  PHE325      0.0534
     75  CG         6.3400    8.7790  -35.6160 C.ar  325  PHE325     -0.0203
     76  CD1        6.5030   10.1590  -35.6030 C.ar  325  PHE325     -0.0042
     77  CD2        5.8230    8.1820  -36.7590 C.ar  325  PHE325     -0.0042
     78  CE1        6.1380   10.9390  -36.7030 C.ar  325  PHE325     -0.0003
     79  CE2        5.4600    8.9510  -37.8670 C.ar  325  PHE325     -0.0003
     80  CZ         5.6220   10.3300  -37.8390 C.ar  325  PHE325     -0.0000
     81  N          0.2230    7.7140  -33.2640 N.3   327  VAL327     -0.1245
     82  CA        -0.9720    8.2750  -33.8880 C.3   327  VAL327      0.1561
     83  C         -1.7240    9.0420  -32.8000 C.2   327  VAL327      0.2260
     84  O         -2.0490    8.4910  -31.7460 O.2   327  VAL327     -0.2867
     85  CB        -1.8540    7.1830  -34.5460 C.3   327  VAL327      0.0252
     86  CG1       -3.1400    7.7780  -35.1180 C.3   327  VAL327      0.0019
     87  CG2       -1.0720    6.4630  -35.6420 C.3   327  VAL327      0.0019
     88  N          0.2470   12.8850  -35.9990 N.3   397  ARG397     -0.1245
     89  CA         1.2220   12.2570  -35.1260 C.3   397  ARG397      0.1563
     90  C          1.7200   13.1430  -34.0060 C.2   397  ARG397      0.2260
     91  O          1.7420   14.3680  -34.1340 O.2   397  ARG397     -0.2867
     92  CB         2.4430   11.8310  -35.9510 C.3   397  ARG397      0.0307
     93  CG         2.1490   10.8370  -37.0540 C.3   397  ARG397      0.0489
     94  CD         1.9130    9.4660  -36.4830 C.3   397  ARG397      0.2205
     95  NE         1.5520    8.5150  -37.5320 N.pl3 397  ARG397     -0.0865
     96  CZ         1.8370    7.2170  -37.5030 C.cat 397  ARG397      0.5346
     97  NH1        2.5110    6.7000  -36.4810 N.pl3 397  ARG397      0.1354
     98  NH2        1.4550    6.4370  -38.5070 N.pl3 397  ARG397      0.1354
     99  N          5.6020   -4.5400  -44.0580 N.3   469  PHE469     -0.1241
    100  CA         6.9800   -4.3700  -43.5890 C.3   469  PHE469      0.1605
    101  C          7.9940   -5.4990  -43.8510 C.2   469  PHE469      0.2264
    102  O          9.1570   -5.3610  -43.4980 O.2   469  PHE469     -0.2867
    103  CB         6.9710   -4.0340  -42.0960 C.3   469  PHE469      0.0534
    104  CG         6.0350   -2.9120  -41.7330 C.ar  469  PHE469     -0.0203
    105  CD1        6.1940   -1.6470  -42.3030 C.ar  469  PHE469     -0.0042
    106  CD2        4.9990   -3.1180  -40.8280 C.ar  469  PHE469     -0.0042
    107  CE1        5.3350   -0.6000  -41.9750 C.ar  469  PHE469     -0.0003
    108  CE2        4.1310   -2.0700  -40.4810 C.ar  469  PHE469     -0.0003
    109  CZ         4.3010   -0.8090  -41.0660 C.ar  469  PHE469     -0.0000
@<TRIPOS>BOND
     1     3     4    2
     2     3     2    1
     3     2     1    1
     4     2     5    1
     5    12    13    1
     6     5     6    1
     7    16    13    1
     8    16    17    1
     9    10     9    1
    10     6     7    1
    11    27    26    2
    12    99   100    1
    13    13    14    1
    14    15    14    2
    15   101   100    1
    16   101   102    2
    17    26    25    1
    18   100   103    1
    19     7     8    1
    20    17    18   ar
    21    17    19   ar
    22    18    20   ar
    23     9     8    2
    24     9    11    1
    25    19    21   ar
    26    25    24    1
    27   105   107   ar
    28   105   104   ar
    29   103   104    1
    30    20    22   ar
    31   107   109   ar
    32    40    39    2
    33    39    38    1
    34   104   106   ar
    35    21    22   ar
    36    41    38    1
    37    41    42    1
    38    22    23    1
    39   109   108   ar
    40   106   108   ar
    41    38    37    1
    42    42    43    1
    43    37    30   am
    44    43    44    1
    45    28    29    1
    46    30    29    1
    47    30    31    2
    48    32    29    1
    49    32    33    1
    50    44    45    1
    51    98    96    1
    52    61    60    1
    53    33    34    1
    54    60    57    1
    55    79    80   ar
    56    79    77   ar
    57    80    78   ar
    58    95    96    2
    59    95    94    1
    60    96    97    1
    61    52    54   ar
    62    52    51   ar
    63    93    94    1
    64    93    92    1
    65    54    55   ar
    66    56    57    1
    67    77    75   ar
    68    59    58    2
    69    78    76   ar
    70    34    35    1
    71    57    58    1
    72    51    50    1
    73    51    53   ar
    74    50    47    1
    75    55    53   ar
    76    88    89    1
    77    92    89    1
    78    35    36    1
    79    87    85    1
    80    75    76   ar
    81    75    74    1
    82    46    47    1
    83    47    48    1
    84    69    67   ar
    85    89    90    1
    86    86    85    1
    87    68    67   ar
    88    85    82    1
    89    74    71    1
    90    67    66    1
    91    91    90    2
    92    73    72    2
    93    48    49    2
    94    82    81    1
    95    82    83    1
    96    65    64    2
    97    72    71    1
    98    71    70    1
    99    66    63    1
   100    83    84    2
   101    64    63    1
   102    63    62    1
