@<TRIPOS>MOLECULE
tmp/2qf6C00.pdb
 135 125 0 0 0
SMALL
GASTEIGER

@<TRIPOS>ATOM
      1  N         37.3720   29.3230   50.3150 N.3    35  ASN35      -0.1225
      2  CA        36.7360   28.1560   49.7350 C.3    35  ASN35       0.1785
      3  C         35.7050   28.5750   48.6910 C.2    35  ASN35       0.2597
      4  O         35.7450   28.1080   47.5510 O.2    35  ASN35      -0.2718
      5  CB        36.0540   27.3260   50.8190 C.3    35  ASN35       0.1169
      6  CG        37.0400   26.5610   51.6740 C.2    35  ASN35       0.2627
      7  OD1       38.2200   26.4520   51.3380 O.2    35  ASN35      -0.2716
      8  ND2       36.5570   26.0100   52.7790 N.am   35  ASN35      -0.0877
      9  N         34.7820   29.4560   49.0760 N.am   36  SER36      -0.1952
     10  CA        33.7490   29.9240   48.1590 C.3    36  SER36       0.1924
     11  C         34.3640   30.4760   46.8810 C.2    36  SER36       0.2314
     12  O         33.8690   30.2000   45.7880 O.2    36  SER36      -0.2863
     13  CB        32.8880   30.9890   48.8310 C.3    36  SER36       0.2116
     14  OG        32.2350   30.4490   49.9610 O.3    36  SER36      -0.2180
     15  N         35.4000   27.6140   44.9080 N.3    39  ALA39      -0.1245
     16  CA        34.2230   26.9220   44.4140 C.3    39  ALA39       0.1562
     17  C         33.6470   27.6910   43.2370 C.2    39  ALA39       0.2260
     18  O         33.0690   27.1090   42.3300 O.2    39  ALA39      -0.2867
     19  CB        33.1910   26.7870   45.5250 C.3    39  ALA39       0.0290
     20  N         35.9530   27.0420   40.0640 N.3    42  LYS42      -0.1245
     21  CA        35.6320   25.7800   39.4120 C.3    42  LYS42       0.1561
     22  C         34.4140   25.9290   38.5280 C.2    42  LYS42       0.2260
     23  O         34.5160   25.8120   37.3090 O.2    42  LYS42      -0.2867
     24  CB        35.4080   24.6730   40.4410 C.3    42  LYS42       0.0271
     25  CG        36.6560   24.3460   41.2630 C.3    42  LYS42       0.0035
     26  CD        36.3720   23.2850   42.3200 C.3    42  LYS42       0.0206
     27  CE        37.4700   23.2200   43.3800 C.3    42  LYS42       0.1093
     28  NZ        37.0530   22.3600   44.5380 N.3    42  LYS42      -0.1314
     29  N         27.6770   30.8820   48.7030 N.3    77  ASP77      -0.1239
     30  CA        28.2660   31.1100   47.3930 C.3    77  ASP77       0.1674
     31  C         27.4480   30.3800   46.3370 C.2    77  ASP77       0.2266
     32  O         26.6130   29.5200   46.6390 O.2    77  ASP77      -0.2867
     33  CB        29.7510   30.6770   47.3320 C.3    77  ASP77       0.1410
     34  CG        29.9520   29.1780   47.4950 C.2    77  ASP77       0.3668
     35  OD1       29.5200   28.4100   46.6140 O.co2  77  ASP77      -0.2456
     36  OD2       30.5460   28.7610   48.5100 O.co2  77  ASP77      -0.2456
     37  N         30.5280   25.8230   42.4270 N.3    80  ILE80      -0.1231
     38  CA        30.2920   24.5050   41.8640 C.3    80  ILE80       0.1692
     39  C         29.3980   23.6020   42.7200 C.2    80  ILE80       0.2593
     40  O         28.6730   22.7490   42.1940 O.2    80  ILE80      -0.2718
     41  CB        31.6310   23.8200   41.6340 C.3    80  ILE80       0.0266
     42  CG1       31.4090   22.4510   41.0010 C.3    80  ILE80       0.0019
     43  CG2       32.3750   23.7210   42.9480 C.3    80  ILE80       0.0020
     44  CD1       30.6170   22.4930   39.7280 C.3    80  ILE80       0.0001
     45  N         29.4330   23.8040   44.0320 N.am   81  GLY81      -0.1942
     46  CA        28.6260   22.9860   44.9160 C.3    81  GLY81       0.2014
     47  C         29.2840   21.6320   45.0550 C.2    81  GLY81       0.2638
     48  O         30.3650   21.4010   44.4910 O.2    81  GLY81      -0.2714
     49  N         28.6480   20.7380   45.8040 N.am   82  MET82      -0.1976
     50  CA        29.1900   19.3990   46.0070 C.3    82  MET82       0.1605
     51  C         28.1410   18.3120   45.8480 C.2    82  MET82       0.2287
     52  O         26.9940   18.4770   46.2510 O.2    82  MET82      -0.2864
     53  CB        29.8060   19.2730   47.3970 C.3    82  MET82       0.0413
     54  CG        30.9720   20.1960   47.6620 C.3    82  MET82       0.0598
     55  SD        31.5290   19.9230   49.3400 S.3    82  MET82      -0.1393
     56  CE        30.2750   20.8230   50.2260 C.3    82  MET82       0.0692
     57  N         34.7630   14.5510   50.7780 N.3    90  ASN90      -0.1225
     58  CA        35.5630   15.7400   51.0910 C.3    90  ASN90       0.1785
     59  C         35.6900   16.1240   52.5550 C.2    90  ASN90       0.2597
     60  O         36.7150   16.6750   52.9490 O.2    90  ASN90      -0.2718
     61  CB        35.0600   16.9620   50.3300 C.3    90  ASN90       0.1169
     62  CG        35.3740   16.8940   48.8650 C.2    90  ASN90       0.2627
     63  OD1       36.3880   16.3290   48.4670 O.2    90  ASN90      -0.2716
     64  ND2       34.5180   17.4850   48.0470 N.am   90  ASN90      -0.0877
     65  N         34.6580   15.8620   53.3550 N.am   91  LEU91      -0.1980
     66  CA        34.7120   16.1770   54.7760 C.3    91  LEU91       0.1596
     67  C         34.8960   14.8940   55.6260 C.2    91  LEU91       0.2287
     68  O         34.6060   14.8950   56.8190 O.2    91  LEU91      -0.2864
     69  CB        33.4460   16.9480   55.1770 C.3    91  LEU91       0.0297
     70  CG        33.2310   18.3520   54.5620 C.3    91  LEU91       0.0022
     71  CD1       33.2280   18.2710   53.0610 C.3    91  LEU91       0.0001
     72  CD2       31.9200   18.9690   55.0440 C.3    91  LEU91       0.0001
     73  N         40.0580   13.6720   52.2800 N.3    94  ILE94      -0.1245
     74  CA        41.1170   14.6830   52.3500 C.3    94  ILE94       0.1561
     75  C         40.8430   15.3650   53.6710 C.2    94  ILE94       0.2260
     76  O         39.7840   15.9550   53.8940 O.2    94  ILE94      -0.2867
     77  CB        41.0870   15.7440   51.1360 C.3    94  ILE94       0.0252
     78  CG1       42.4810   16.3950   50.9480 C.3    94  ILE94       0.0019
     79  CG2       40.0170   16.8540   51.3550 C.3    94  ILE94       0.0019
     80  CD1       43.0390   17.1740   52.1490 C.3    94  ILE94       0.0001
     81  N         44.7870   22.8700   52.8860 N.3   119  GLY119     -0.1210
     82  CA        43.5050   22.5630   52.2790 C.3   119  GLY119      0.1956
     83  C         42.4030   22.1240   53.2150 C.2   119  GLY119      0.2611
     84  O         41.5160   21.3790   52.8120 O.2   119  GLY119     -0.2717
     85  N         42.4430   22.5690   54.4610 N.am  120  VAL120     -0.1979
     86  CA        41.4060   22.1900   55.4060 C.3   120  VAL120      0.1595
     87  C         40.9380   23.3730   56.2490 C.2   120  VAL120      0.2287
     88  O         40.4710   23.1940   57.3790 O.2   120  VAL120     -0.2864
     89  CB        41.8780   21.0450   56.3380 C.3   120  VAL120      0.0276
     90  CG1       42.3320   19.8810   55.5100 C.3   120  VAL120      0.0022
     91  CG2       42.9980   21.5110   57.2470 C.3   120  VAL120      0.0022
     92  N         38.3200   25.0590   56.1770 N.3   122  PHE122     -0.1227
     93  CA        36.9350   24.9150   56.6090 C.3   122  PHE122      0.1736
     94  C         36.8080   24.6580   58.0950 C.2   122  PHE122      0.2595
     95  O         36.0410   25.3160   58.7720 O.2   122  PHE122     -0.2718
     96  CB        36.2470   23.7650   55.8760 C.3   122  PHE122      0.0547
     97  CG        34.9160   23.3680   56.4790 C.ar  122  PHE122     -0.0202
     98  CD1       33.7570   24.0790   56.1910 C.ar  122  PHE122     -0.0042
     99  CD2       34.8230   22.2650   57.3200 C.ar  122  PHE122     -0.0042
    100  CE1       32.5290   23.6920   56.7220 C.ar  122  PHE122     -0.0003
    101  CE2       33.5970   21.8730   57.8580 C.ar  122  PHE122     -0.0003
    102  CZ        32.4500   22.5890   57.5560 C.ar  122  PHE122     -0.0000
    103  N         37.5660   23.7000   58.6070 N.am  123  TYR123     -0.1976
    104  CA        37.4700   23.3570   60.0170 C.3   123  TYR123      0.1639
    105  C         37.7260   24.5090   60.9940 C.2   123  TYR123      0.2290
    106  O         37.3330   24.4230   62.1560 O.2   123  TYR123     -0.2864
    107  CB        38.3720   22.1470   60.3030 C.3   123  TYR123      0.0560
    108  CG        37.9650   20.9190   59.5030 C.ar  123  TYR123     -0.0198
    109  CD1       36.8740   20.1420   59.8830 C.ar  123  TYR123     -0.0009
    110  CD2       38.6300   20.5740   58.3320 C.ar  123  TYR123     -0.0009
    111  CE1       36.4520   19.0580   59.1170 C.ar  123  TYR123      0.0417
    112  CE2       38.2090   19.4880   57.5560 C.ar  123  TYR123      0.0417
    113  CZ        37.1210   18.7340   57.9520 C.ar  123  TYR123      0.1957
    114  OH        36.6940   17.6640   57.1790 O.3   123  TYR123     -0.2866
    115  N         26.1170   22.5540   56.7450 N.3   134  VAL134     -0.1245
    116  CA        26.4680   22.8680   55.3660 C.3   134  VAL134      0.1561
    117  C         25.3880   22.4300   54.3860 C.2   134  VAL134      0.2260
    118  O         24.9800   21.2680   54.3660 O.2   134  VAL134     -0.2867
    119  CB        27.8020   22.1950   54.9570 C.3   134  VAL134      0.0252
    120  CG1       28.1250   22.5070   53.5010 C.3   134  VAL134      0.0019
    121  CG2       28.9150   22.6800   55.8430 C.3   134  VAL134      0.0019
    122  N         27.1380   26.5160   47.4810 N.3   168  THR168     -0.1218
    123  CA        27.2580   26.0130   48.8280 C.3   168  THR168      0.1862
    124  C         26.8930   27.0650   49.8580 C.2   168  THR168      0.2287
    125  O         27.1210   28.2720   49.6800 O.2   168  THR168     -0.2866
    126  CB        28.6660   25.5270   49.1180 C.3   168  THR168      0.1770
    127  OG1       29.1020   24.6710   48.0520 O.3   168  THR168     -0.2211
    128  CG2       28.6810   24.7580   50.4240 C.3   168  THR168      0.0375
    129  N         27.3570   27.6770   53.9640 N.3   170  VAL170     -0.1245
    130  CA        27.9260   27.2680   55.2480 C.3   170  VAL170      0.1561
    131  C         27.2470   28.0230   56.3810 C.2   170  VAL170      0.2260
    132  O         27.4130   29.2370   56.5230 O.2   170  VAL170     -0.2867
    133  CB        29.4510   27.5420   55.3350 C.3   170  VAL170      0.0252
    134  CG1       29.9850   27.0470   56.6660 C.3   170  VAL170      0.0019
    135  CG2       30.1840   26.8490   54.2040 C.3   170  VAL170      0.0019
@<TRIPOS>BOND
     1    23    22    2
     2    22    21    1
     3    21    20    1
     4    21    24    1
     5    44    42    1
     6    24    25    1
     7    42    41    1
     8    25    26    1
     9    41    38    1
    10    41    43    1
    11    38    37    1
    12    38    39    1
    13    40    39    2
    14    26    27    1
    15    18    17    2
    16    39    45   am
    17    17    16    1
    18    27    28    1
    19    45    46    1
    20    16    15    1
    21    16    19    1
    22    48    47    2
    23    46    47    1
    24    47    49   am
    25    12    11    2
    26    49    50    1
    27    51    50    1
    28    51    52    2
    29    50    53    1
    30    31    32    2
    31    31    30    1
    32    35    34   ar
    33    11    10    1
    34    33    30    1
    35    33    34    1
    36    30    29    1
    37    53    54    1
    38   122   123    1
    39    34    36   ar
    40     4     3    2
    41    54    55    1
    42    64    62   am
    43   127   126    1
    44    10    13    1
    45    10     9    1
    46    63    62    2
    47     3     9   am
    48     3     2    1
    49   123   126    1
    50   123   124    1
    51    13    14    1
    52    62    61    1
    53   126   128    1
    54    55    56    1
    55   125   124    2
    56     2     1    1
    57     2     5    1
    58    61    58    1
    59    57    58    1
    60     5     6    1
    61    78    77    1
    62    78    80    1
    63    58    59    1
    64    77    79    1
    65    77    74    1
    66     7     6    2
    67     6     8   am
    68    82    81    1
    69    82    83    1
    70    73    74    1
    71    74    75    1
    72    59    60    2
    73    59    65   am
    74    84    83    2
    75    71    70    1
    76    83    85   am
    77    65    66    1
    78   120   119    1
    79    75    76    2
    80   129   130    1
    81   135   133    1
    82   118   117    2
    83   117   116    1
    84    85    86    1
    85    70    72    1
    86    70    69    1
    87    66    69    1
    88    66    67    1
    89   119   116    1
    90   119   121    1
    91   130   133    1
    92   130   131    1
    93   133   134    1
    94   116   115    1
    95    86    87    1
    96    86    89    1
    97    90    89    1
    98    67    68    2
    99    96    97    1
   100    96    93    1
   101    92    93    1
   102    98    97   ar
   103    98   100   ar
   104    87    88    2
   105    89    91    1
   106   131   132    2
   107    97    99   ar
   108    93    94    1
   109   100   102   ar
   110   114   113    1
   111    99   101   ar
   112   102   101   ar
   113   112   113   ar
   114   112   110   ar
   115   113   111   ar
   116    94   103   am
   117    94    95    2
   118   110   108   ar
   119   103   104    1
   120   111   109   ar
   121   108   109   ar
   122   108   107    1
   123   104   107    1
   124   104   105    1
   125   105   106    2
