@<TRIPOS>MOLECULE
tmp/2qf8A01.pdb
 185 189 0 0 0
SMALL
GASTEIGER

@<TRIPOS>ATOM
      1  N        -13.7340    0.7830   10.9130 N.3     8  THR8       -0.1218
      2  CA       -14.1980    2.1120   11.3260 C.3     8  THR8        0.1862
      3  C        -13.1260    3.0650   11.9170 C.2     8  THR8        0.2287
      4  O        -12.2780    2.6250   12.7170 O.2     8  THR8       -0.2866
      5  CB       -15.3250    1.9990   12.3070 C.3     8  THR8        0.1770
      6  OG1      -14.8840    1.2420   13.4110 O.3     8  THR8       -0.2211
      7  CG2      -16.4850    1.2160   11.7100 C.3     8  THR8        0.0375
      8  N        -13.2820    5.7850   14.1330 N.3    10  TRP10      -0.1241
      9  CA       -13.3340    6.0460   15.5340 C.3    10  TRP10       0.1605
     10  C        -12.8750    4.9000   16.4230 C.2    10  TRP10       0.2264
     11  O        -12.8070    4.9930   17.6970 O.2    10  TRP10      -0.2867
     12  CB       -14.7190    6.4500   15.8970 C.3    10  TRP10       0.0550
     13  CG       -15.7440    5.4520   15.5980 C.ar   10  TRP10       0.0003
     14  CD1      -16.2690    4.5750   16.4800 C.ar   10  TRP10       0.0946
     15  CD2      -16.4490    5.2300   14.3540 C.ar   10  TRP10       0.0152
     16  NE1      -17.2050    3.7700   15.8800 N.ar   10  TRP10      -0.2442
     17  CE2      -17.3530    4.1640   14.5770 C.ar   10  TRP10       0.0810
     18  CE3      -16.3660    5.7710   13.0660 C.ar   10  TRP10       0.0012
     19  CZ2      -18.1760    3.6680   13.5870 C.ar   10  TRP10       0.0191
     20  CZ3      -17.1460    5.2720   12.1000 C.ar   10  TRP10       0.0001
     21  CH2      -18.0520    4.2250   12.3570 C.ar   10  TRP10       0.0015
     22  N         -9.7000    5.2560   19.0670 N.3    13  TYR13      -0.1227
     23  CA        -9.8910    5.8340   20.3870 C.3    13  TYR13       0.1736
     24  C        -10.2100    4.8360   21.4570 C.2    13  TYR13       0.2595
     25  O         -9.8250    5.0110   22.5820 O.2    13  TYR13      -0.2718
     26  CB       -10.9650    6.9120   20.3300 C.3    13  TYR13       0.0548
     27  CG       -10.6240    7.9250   19.2450 C.ar   13  TYR13      -0.0200
     28  CD1       -9.4380    8.6370   19.2820 C.ar   13  TYR13      -0.0009
     29  CD2      -11.4810    8.1490   18.1820 C.ar   13  TYR13      -0.0009
     30  CE1       -9.1260    9.5400   18.2730 C.ar   13  TYR13       0.0417
     31  CE2      -11.2020    9.0520   17.2030 C.ar   13  TYR13       0.0417
     32  CZ       -10.0130    9.7670   17.2300 C.ar   13  TYR13       0.1957
     33  OH        -9.7090   10.6920   16.1920 O.3    13  TYR13      -0.2866
     34  N        -10.9020    3.7700   21.1380 N.am   14  ARG14      -0.1980
     35  CA       -11.1980    2.8010   22.1550 C.3    14  ARG14       0.1597
     36  C         -9.9470    2.5410   23.0310 C.2    14  ARG14       0.2287
     37  O         -8.8680    2.4060   22.5140 O.2    14  ARG14      -0.2864
     38  CB       -11.6950    1.5320   21.4470 C.3    14  ARG14       0.0334
     39  CG       -13.1520    1.6210   20.9850 C.3    14  ARG14       0.0492
     40  CD       -13.5610    0.5390   20.0630 C.3    14  ARG14       0.2205
     41  NE       -14.6480    0.9370   19.2040 N.pl3  14  ARG14      -0.0865
     42  CZ       -14.9220    0.2780   18.1230 C.cat  14  ARG14       0.5346
     43  NH1      -14.2290   -0.7790   17.8090 N.pl3  14  ARG14       0.1354
     44  NH2      -15.8760    0.6640   17.3380 N.pl3  14  ARG14       0.1354
     45  N        -15.6190    6.6160    7.9120 N.3    37  PHE37      -0.1241
     46  CA       -16.3460    7.2240    6.7760 C.3    37  PHE37       0.1605
     47  C        -15.5880    8.4990    6.4370 C.2    37  PHE37       0.2264
     48  O        -14.8270    9.0080    7.2630 O.2    37  PHE37      -0.2867
     49  CB       -17.7840    7.6160    7.1410 C.3    37  PHE37       0.0534
     50  CG       -18.7330    6.4170    7.3220 C.ar   37  PHE37      -0.0203
     51  CD1      -19.1430    5.6550    6.2200 C.ar   37  PHE37      -0.0042
     52  CD2      -19.2540    6.0790    8.5880 C.ar   37  PHE37      -0.0042
     53  CE1      -19.9910    4.5720    6.3490 C.ar   37  PHE37      -0.0003
     54  CE2      -20.1440    5.0030    8.7290 C.ar   37  PHE37      -0.0003
     55  CZ       -20.4800    4.2260    7.5890 C.ar   37  PHE37      -0.0000
     56  N        -12.2600   12.8570    7.6560 N.3    48  TRP48      -0.1227
     57  CA       -13.1710   13.1030    8.7770 C.3    48  TRP48       0.1737
     58  C        -12.2930   13.4560   10.0330 C.2    48  TRP48       0.2595
     59  O        -12.3200   14.5510   10.5580 O.2    48  TRP48      -0.2718
     60  CB       -14.0510   11.8640    9.0060 C.3    48  TRP48       0.0564
     61  CG       -15.0970   12.0130   10.0910 C.ar   48  TRP48       0.0003
     62  CD1      -14.8810   11.9780   11.4170 C.ar   48  TRP48       0.0946
     63  CD2      -16.5210   12.1620    9.9320 C.ar   48  TRP48       0.0152
     64  NE1      -16.0520   12.1120   12.1020 N.ar   48  TRP48      -0.2442
     65  CE2      -17.0760   12.2270   11.2130 C.ar   48  TRP48       0.0810
     66  CE3      -17.3790   12.2150    8.8290 C.ar   48  TRP48       0.0012
     67  CZ2      -18.4280   12.3670   11.4360 C.ar   48  TRP48       0.0191
     68  CZ3      -18.6890   12.3420    9.0360 C.ar   48  TRP48       0.0001
     69  CH2      -19.2200   12.4110   10.3360 C.ar   48  TRP48       0.0015
     70  N        -11.5190   12.4790   10.4960 N.am   49  GLU49      -0.1965
     71  CA       -10.7000   12.6950   11.6470 C.3    49  GLU49       0.1733
     72  C         -9.4420   13.4820   11.2150 C.2    49  GLU49       0.2616
     73  O         -9.1590   13.6840   10.0200 O.2    49  GLU49      -0.2715
     74  CB       -10.3510   11.3590   12.3680 C.3    49  GLU49       0.0429
     75  CG       -11.4060   10.2450   12.3660 C.3    49  GLU49       0.1163
     76  CD       -12.3910   10.2430   13.5370 C.2    49  GLU49       0.3649
     77  OE1      -12.0910   10.8150   14.6020 O.co2  49  GLU49      -0.2457
     78  OE2      -13.5010    9.6510   13.3910 O.co2  49  GLU49      -0.2457
     79  N         -8.7100   13.9500   12.2280 N.am   50  TRP50      -0.1974
     80  CA        -7.4930   14.7060   12.0260 C.3    50  TRP50       0.1640
     81  C         -6.4050   13.8510   11.3330 C.2    50  TRP50       0.2290
     82  O         -5.8220   14.2530   10.3060 O.2    50  TRP50      -0.2864
     83  CB        -7.0070   15.2710   13.3690 C.3    50  TRP50       0.0576
     84  CG        -6.7650   14.2450   14.4170 C.ar   50  TRP50       0.0006
     85  CD1       -7.7070   13.4570   15.0430 C.ar   50  TRP50       0.0946
     86  CD2       -5.4980   13.8690   14.9800 C.ar   50  TRP50       0.0152
     87  NE1       -7.1020   12.6170   15.9570 N.ar   50  TRP50      -0.2442
     88  CE2       -5.7490   12.8350   15.9410 C.ar   50  TRP50       0.0810
     89  CE3       -4.1740   14.2730   14.7590 C.ar   50  TRP50       0.0012
     90  CZ2       -4.7210   12.2170   16.6840 C.ar   50  TRP50       0.0191
     91  CZ3       -3.1490   13.6610   15.4980 C.ar   50  TRP50       0.0001
     92  CH2       -3.4330   12.6450   16.4560 C.ar   50  TRP50       0.0015
     93  N        -24.1310    6.8100    9.5530 N.3    78  TRP78      -0.1227
     94  CA       -25.3110    7.2680   10.3170 C.3    78  TRP78       0.1737
     95  C        -25.1200    8.6740   10.9350 C.2    78  TRP78       0.2595
     96  O        -25.9940    9.5150   10.8250 O.2    78  TRP78      -0.2718
     97  CB       -25.8010    6.2120   11.3460 C.3    78  TRP78       0.0564
     98  CG       -25.9060    4.7820   10.7920 C.ar   78  TRP78       0.0003
     99  CD1      -27.0710    4.0810   10.4850 C.ar   78  TRP78       0.0946
    100  CD2      -24.8230    3.8530   10.5410 C.ar   78  TRP78       0.0152
    101  NE1      -26.7600    2.7960   10.0550 N.ar   78  TRP78      -0.2442
    102  CE2      -25.3950    2.6310   10.0810 C.ar   78  TRP78       0.0810
    103  CE3      -23.4350    3.9330   10.6340 C.ar   78  TRP78       0.0012
    104  CZ2      -24.6160    1.5310    9.7250 C.ar   78  TRP78       0.0191
    105  CZ3      -22.6720    2.8250   10.3040 C.ar   78  TRP78       0.0001
    106  CH2      -23.2560    1.6540    9.8590 C.ar   78  TRP78       0.0015
    107  N        -23.9310    8.9450   11.4620 N.am   79  ASN79      -0.1974
    108  CA       -23.6150   10.2000   12.1450 C.3    79  ASN79       0.1688
    109  C        -23.3610   11.3030   11.1330 C.2    79  ASN79       0.2292
    110  O        -22.7000   12.3460   11.3880 O.2    79  ASN79      -0.2864
    111  CB       -22.8530    9.6330   13.3600 C.3    79  ASN79       0.1181
    112  CG       -23.3610    8.6110   14.4530 C.2    79  ASN79       0.2629
    113  OD1      -23.8360    9.0110   15.4770 O.2    79  ASN79      -0.2716
    114  ND2      -23.3990    7.3360   14.1310 N.am   79  ASN79      -0.0877
    115  N        -20.9000   -7.6450   15.7450 N.3   239  PHE239     -0.1241
    116  CA       -21.3120   -7.1700   17.0660 C.3   239  PHE239      0.1605
    117  C        -22.6470   -7.7600   17.4560 C.2   239  PHE239      0.2264
    118  O        -23.2640   -8.5630   16.7380 O.2   239  PHE239     -0.2867
    119  CB       -21.5490   -5.6820   17.0550 C.3   239  PHE239      0.0534
    120  CG       -22.5660   -5.2700   16.0710 C.ar  239  PHE239     -0.0203
    121  CD1      -22.2630   -5.1980   14.7310 C.ar  239  PHE239     -0.0042
    122  CD2      -23.8560   -4.9990   16.4580 C.ar  239  PHE239     -0.0042
    123  CE1      -23.2300   -4.8200   13.8120 C.ar  239  PHE239     -0.0003
    124  CE2      -24.8140   -4.6290   15.5240 C.ar  239  PHE239     -0.0003
    125  CZ       -24.4980   -4.5580   14.2300 C.ar  239  PHE239     -0.0000
    126  N        -16.1610   -0.7630   24.1110 N.3   266  THR266     -0.1203
    127  CA       -16.8290    0.0160   23.0560 C.3   266  THR266      0.1994
    128  C        -17.6400    1.2180   23.5380 C.2   266  THR266      0.2618
    129  O        -18.0650    2.0750   22.7190 O.2   266  THR266     -0.2717
    130  CB       -17.7400   -0.8410   22.1250 C.3   266  THR266      0.1784
    131  OG1      -18.6890   -1.5080   22.9130 O.3   266  THR266     -0.2211
    132  CG2      -17.0450   -1.9360   21.4740 C.3   266  THR266      0.0376
    133  N        -17.9090    1.2600   24.8440 N.am  267  LYS267     -0.1965
    134  CA       -18.6510    2.3590   25.4790 C.3   267  LYS267      0.1728
    135  C        -19.8440    2.8730   24.6860 C.2   267  LYS267      0.2616
    136  O        -19.8660    3.9900   24.2850 O.2   267  LYS267     -0.2715
    137  CB       -17.7050    3.5120   25.7570 C.3   267  LYS267      0.0311
    138  CG       -16.7630    3.2460   26.8980 C.3   267  LYS267      0.0038
    139  CD       -15.6570    4.2820   26.9770 C.3   267  LYS267      0.0206
    140  CE       -14.5210    3.6680   27.8270 C.3   267  LYS267      0.1093
    141  NZ       -13.2120    4.4290   27.7700 N.3   267  LYS267     -0.1314
    142  N        -20.8370    2.0360   24.4470 N.am  268  TRP268     -0.1974
    143  CA       -21.9940    2.4620   23.6740 C.3   268  TRP268      0.1640
    144  C        -23.2560    1.7440   24.1020 C.2   268  TRP268      0.2290
    145  O        -23.3000    0.5270   24.0930 O.2   268  TRP268     -0.2864
    146  CB       -21.9740    1.8830   22.2610 C.3   268  TRP268      0.0576
    147  CG       -22.0820    2.7010   21.1320 C.ar  268  TRP268      0.0006
    148  CD1      -21.2930    3.7840   20.8330 C.ar  268  TRP268      0.0946
    149  CD2      -23.0290    2.5770   20.0790 C.ar  268  TRP268      0.0152
    150  NE1      -21.7040    4.3440   19.6460 N.ar  268  TRP268     -0.2442
    151  CE2      -22.7780    3.6290   19.1640 C.ar  268  TRP268      0.0810
    152  CE3      -24.0990    1.7220   19.8350 C.ar  268  TRP268      0.0012
    153  CZ2      -23.5670    3.8370   18.0100 C.ar  268  TRP268      0.0191
    154  CZ3      -24.8730    1.9070   18.7000 C.ar  268  TRP268      0.0001
    155  CH2      -24.6020    2.9540   17.7920 C.ar  268  TRP268      0.0015
    156  N        -24.8860   -1.6840   22.1570 N.3   271  ILE271     -0.1245
    157  CA       -23.9570   -2.3600   21.2810 C.3   271  ILE271      0.1561
    158  C        -22.8930   -3.1000   22.1060 C.2   271  ILE271      0.2260
    159  O        -22.5630   -2.6580   23.1780 O.2   271  ILE271     -0.2867
    160  CB       -23.3080   -1.3400   20.3280 C.3   271  ILE271      0.0252
    161  CG1      -24.3510   -0.8320   19.3390 C.3   271  ILE271      0.0019
    162  CG2      -22.1940   -1.9780   19.5650 C.3   271  ILE271      0.0019
    163  CD1      -24.9460   -1.8470   18.4310 C.3   271  ILE271      0.0001
    164  N        -19.5290   -6.1850    9.2020 N.3   330  TRP330     -0.1241
    165  CA       -19.4670   -4.9030    9.9140 C.3   330  TRP330      0.1605
    166  C        -19.1440   -5.3960   11.2470 C.2   330  TRP330      0.2264
    167  O        -19.9750   -6.0150   11.8470 O.2   330  TRP330     -0.2867
    168  CB       -20.8140   -4.1530    9.9520 C.3   330  TRP330      0.0550
    169  CG       -20.7450   -2.8650   10.6530 C.ar  330  TRP330      0.0003
    170  CD1      -21.0090   -2.6160   11.9780 C.ar  330  TRP330      0.0946
    171  CD2      -20.3300   -1.6410   10.1130 C.ar  330  TRP330      0.0152
    172  NE1      -20.8250   -1.2930   12.2630 N.ar  330  TRP330     -0.2442
    173  CE2      -20.3930   -0.6770   11.1270 C.ar  330  TRP330      0.0810
    174  CE3      -19.9100   -1.2440    8.8590 C.ar  330  TRP330      0.0012
    175  CZ2      -20.0150    0.6420   10.9150 C.ar  330  TRP330      0.0191
    176  CZ3      -19.5900    0.0490    8.6410 C.ar  330  TRP330      0.0001
    177  CH2      -19.6290    0.9820    9.6450 C.ar  330  TRP330      0.0015
    178  N        -14.7720   -4.8270   15.4720 N.3   334  LEU334     -0.1245
    179  CA       -15.6760   -5.3460   16.5160 C.3   334  LEU334      0.1561
    180  C        -15.5230   -6.8440   16.7080 C.2   334  LEU334      0.2260
    181  O        -16.1510   -7.4250   17.5590 O.2   334  LEU334     -0.2867
    182  CB       -17.1290   -5.0010   16.2180 C.3   334  LEU334      0.0270
    183  CG       -17.3100   -3.4950   16.0630 C.3   334  LEU334      0.0019
    184  CD1      -18.5010   -3.1670   15.1220 C.3   334  LEU334      0.0001
    185  CD2      -17.3310   -2.7400   17.4040 C.3   334  LEU334      0.0001
@<TRIPOS>BOND
     1    51    53   ar
     2    51    50   ar
     3    53    55   ar
     4    47    46    1
     5    47    48    2
     6    46    49    1
     7    46    45    1
     8    49    50    1
     9    50    52   ar
    10    55    54   ar
    11    56    57    1
    12    52    54   ar
    13   176   174   ar
    14   176   177   ar
    15    57    60    1
    16    57    58    1
    17    66    68   ar
    18    66    63   ar
    19   174   171   ar
    20    60    61    1
    21    68    69   ar
    22   164   165    1
    23    93    94    1
    24   177   175   ar
    25   104   106   ar
    26   104   102   ar
    27   106   105   ar
    28   165   168    1
    29   165   166    1
    30    63    61   ar
    31    63    65   ar
    32   168   169    1
    33    73    72    2
    34    58    70   am
    35    58    59    2
    36   101   102   ar
    37   101    99   ar
    38   102   100   ar
    39    61    62   ar
    40   171   169   ar
    41   171   173   ar
    42   105   103   ar
    43    82    81    2
    44    94    95    1
    45    94    97    1
    46    69    67   ar
    47    99    98   ar
    48    70    71    1
    49   100   103   ar
    50   100    98   ar
    51   169   170   ar
    52    98    97    1
    53    96    95    2
    54     1     2    1
    55   175   173   ar
    56    95   107   am
    57   173   172   ar
    58   109   110    2
    59   109   108    1
    60    65    67   ar
    61    65    64   ar
    62    72    71    1
    63    72    79   am
    64   166   167    2
    65     2     3    1
    66     2     5    1
    67    81    80    1
    68    62    64   ar
    69   107   108    1
    70    71    74    1
    71     7     5    1
    72     3     4    2
    73   170   172   ar
    74    80    79    1
    75    80    83    1
    76    20    21   ar
    77    20    18   ar
    78   108   111    1
    79     5     6    1
    80    21    19   ar
    81    75    74    1
    82    75    76    1
    83    18    15   ar
    84   111   112    1
    85    83    84    1
    86    78    76   ar
    87    76    77   ar
    88    19    17   ar
    89   123   125   ar
    90   123   121   ar
    91   114   112   am
    92     8     9    1
    93   125   124   ar
    94    15    17   ar
    95    15    13   ar
    96    84    86   ar
    97    84    85   ar
    98   112   113    2
    99    17    16   ar
   100   121   120   ar
   101    89    86   ar
   102    89    91   ar
   103    86    88   ar
   104    85    87   ar
   105   184   183    1
   106   178   179    1
   107    91    92   ar
   108   124   122   ar
   109     9    12    1
   110     9    10    1
   111    13    12    1
   112    13    14   ar
   113   115   116    1
   114    16    14   ar
   115    88    87   ar
   116    88    90   ar
   117   183   182    1
   118   183   185    1
   119   120   122   ar
   120   120   119    1
   121    33    32    1
   122   182   179    1
   123    10    11    2
   124    92    90   ar
   125   179   180    1
   126   180   181    2
   127   118   117    2
   128   119   116    1
   129   116   117    1
   130    31    32   ar
   131    31    29   ar
   132    32    30   ar
   133    44    42    1
   134   155   153   ar
   135   155   154   ar
   136    43    42    1
   137   153   151   ar
   138    42    41    2
   139    29    27   ar
   140    30    28   ar
   141   163   161    1
   142   154   152   ar
   143    22    23    1
   144   151   150   ar
   145   151   149   ar
   146    41    40    1
   147    27    28   ar
   148    27    26    1
   149   161   160    1
   150   162   160    1
   151   150   148   ar
   152   152   149   ar
   153    40    39    1
   154   149   147   ar
   155   160   157    1
   156    26    23    1
   157    23    24    1
   158   148   147   ar
   159    39    38    1
   160   147   146    1
   161    34    24   am
   162    34    35    1
   163   157   158    1
   164   157   156    1
   165    38    35    1
   166    24    25    2
   167   132   130    1
   168   158   159    2
   169   130   131    1
   170   130   127    1
   171    35    36    1
   172   146   143    1
   173    37    36    2
   174   129   128    2
   175   127   128    1
   176   127   126    1
   177   128   133   am
   178   143   144    1
   179   143   142    1
   180   145   144    2
   181   136   135    2
   182   142   135   am
   183   135   134    1
   184   133   134    1
   185   134   137    1
   186   137   138    1
   187   138   139    1
   188   139   140    1
   189   141   140    1
