@<TRIPOS>MOLECULE
tmp/2qfcB00.pdb
 246 234 0 0 0
SMALL
GASTEIGER

@<TRIPOS>ATOM
      1  N          1.6770   32.9460   12.8470 N.3    84  CYS84      -0.1235
      2  CA         0.9740   32.6340   14.0780 C.3    84  CYS84       0.1677
      3  C         -0.4920   32.3190   13.8420 C.2    84  CYS84       0.2270
      4  O         -0.9890   31.3250   14.3490 O.2    84  CYS84      -0.2867
      5  CB         1.0690   33.7890   15.0560 C.3    84  CYS84       0.0956
      6  SG         2.7750   34.0860   15.6300 S.3    84  CYS84      -0.0801
      7  N         -0.6960   29.3000   12.4520 N.3    87  LYS87      -0.1245
      8  CA        -0.0720   28.3330   13.3580 C.3    87  LYS87       0.1561
      9  C          1.1510   27.6050   12.7630 C.2    87  LYS87       0.2260
     10  O          1.3470   26.4250   13.0520 O.2    87  LYS87      -0.2867
     11  CB        -1.0990   27.3270   13.8750 C.3    87  LYS87       0.0271
     12  CG        -1.7040   27.7580   15.1950 C.3    87  LYS87       0.0035
     13  CD        -3.1680   27.4430   15.3220 C.3    87  LYS87       0.0206
     14  CE        -3.8970   28.6750   15.8680 C.3    87  LYS87       0.1093
     15  NZ        -5.3810   28.4760   16.0400 N.3    87  LYS87      -0.1314
     16  N          4.4880   27.2540   13.2420 N.3    89  TYR89      -0.1241
     17  CA         5.5240   27.4640   14.2180 C.3    89  TYR89       0.1605
     18  C          6.9050   26.9350   13.8320 C.2    89  TYR89       0.2264
     19  O          7.9040   27.5530   14.1520 O.2    89  TYR89      -0.2867
     20  CB         5.0370   26.8970   15.5380 C.3    89  TYR89       0.0534
     21  CG         4.1010   27.8380   16.1710 C.ar   89  TYR89      -0.0201
     22  CD1        4.5880   28.9830   16.8210 C.ar   89  TYR89      -0.0009
     23  CD2        2.7400   27.6290   16.1300 C.ar   89  TYR89      -0.0009
     24  CE1        3.7550   29.8890   17.4020 C.ar   89  TYR89       0.0417
     25  CE2        1.8780   28.5210   16.7520 C.ar   89  TYR89       0.0417
     26  CZ         2.3980   29.6720   17.3610 C.ar   89  TYR89       0.1957
     27  OH         1.5620   30.6030   17.9620 O.3    89  TYR89      -0.2866
     28  N         10.5520   36.8090   21.9860 N.3   115  TRP115     -0.1227
     29  CA         9.2120   36.3880   22.3480 C.3   115  TRP115      0.1737
     30  C          8.8140   35.2800   21.3770 C.2   115  TRP115      0.2595
     31  O          8.6320   34.1270   21.8050 O.2   115  TRP115     -0.2718
     32  CB         8.2640   37.5880   22.2460 C.3   115  TRP115      0.0564
     33  CG         6.8470   37.3100   22.1860 C.ar  115  TRP115      0.0003
     34  CD1        6.1620   36.3110   22.8300 C.ar  115  TRP115      0.0946
     35  CD2        5.8750   38.0800   21.4830 C.ar  115  TRP115      0.0152
     36  NE1        4.7770   36.4070   22.5540 N.ar  115  TRP115     -0.2442
     37  CE2        4.5950   37.4800   21.7190 C.ar  115  TRP115      0.0810
     38  CE3        5.9560   39.2120   20.6710 C.ar  115  TRP115      0.0012
     39  CZ2        3.4180   37.9810   21.1590 C.ar  115  TRP115      0.0191
     40  CZ3        4.8000   39.7000   20.0860 C.ar  115  TRP115      0.0001
     41  CH2        3.5320   39.0810   20.3380 C.ar  115  TRP115      0.0015
     42  N          8.7770   35.5950   20.0680 N.am  116  GLN116     -0.1979
     43  CA         8.4780   34.5830   19.1170 C.3   116  GLN116      0.1601
     44  C          9.3280   33.3210   19.1900 C.2   116  GLN116      0.2287
     45  O          8.8100   32.1990   19.0600 O.2   116  GLN116     -0.2864
     46  CB         8.4530   35.1230   17.7260 C.3   116  GLN116      0.0394
     47  CG         7.0040   34.9900   17.1690 C.3   116  GLN116      0.0908
     48  CD         6.2650   36.0630   17.6960 C.2   116  GLN116      0.2608
     49  OE1        6.8720   37.0230   18.1060 O.2   116  GLN116     -0.2717
     50  NE2        5.0060   35.9590   17.7610 N.am  116  GLN116     -0.0878
     51  N          8.0820   31.2580   22.2500 N.3   119  VAL119     -0.1245
     52  CA         6.7830   30.5960   22.1540 C.3   119  VAL119      0.1561
     53  C          6.8500   29.4790   21.1280 C.2   119  VAL119      0.2260
     54  O          6.4140   28.3610   21.3550 O.2   119  VAL119     -0.2867
     55  CB         5.6820   31.5750   21.8740 C.3   119  VAL119      0.0252
     56  CG1        4.4050   30.8730   21.5680 C.3   119  VAL119      0.0019
     57  CG2        5.4980   32.4700   23.0860 C.3   119  VAL119      0.0019
     58  N          8.3350   26.3960   22.4780 N.3   122  TYR122     -0.1227
     59  CA         7.4140   25.7730   23.4130 C.3   122  TYR122      0.1736
     60  C          6.4430   24.9080   22.6700 C.2   122  TYR122      0.2595
     61  O          6.2750   23.7310   23.0270 O.2   122  TYR122     -0.2718
     62  CB         6.6530   26.8250   24.1880 C.3   122  TYR122      0.0548
     63  CG         5.5100   26.2940   24.9660 C.ar  122  TYR122     -0.0200
     64  CD1        5.6790   25.3400   26.0030 C.ar  122  TYR122     -0.0009
     65  CD2        4.2270   26.7420   24.6830 C.ar  122  TYR122     -0.0009
     66  CE1        4.5390   24.8650   26.7120 C.ar  122  TYR122      0.0417
     67  CE2        3.1530   26.3110   25.3650 C.ar  122  TYR122      0.0417
     68  CZ         3.2890   25.3900   26.3560 C.ar  122  TYR122      0.1957
     69  OH         2.1090   25.0270   26.9600 O.3   122  TYR122     -0.2866
     70  N          5.8130   25.4780   21.6560 N.am  123  VAL123     -0.1980
     71  CA         4.8350   24.7600   20.8480 C.3   123  VAL123      0.1595
     72  C          5.4570   23.5450   20.1320 C.2   123  VAL123      0.2287
     73  O          4.8110   22.5040   20.0280 O.2   123  VAL123     -0.2864
     74  CB         4.2590   25.6720   19.7810 C.3   123  VAL123      0.0276
     75  CG1        3.3940   24.8630   18.7870 C.3   123  VAL123      0.0022
     76  CG2        3.4980   26.8250   20.4400 C.3   123  VAL123      0.0022
     77  N          0.4280   38.1070   27.5650 N.3   157  ASN157     -0.1225
     78  CA        -0.6810   37.2540   27.1650 C.3   157  ASN157      0.1785
     79  C         -0.1900   35.8330   26.9430 C.2   157  ASN157      0.2597
     80  O         -0.8200   34.8760   27.4190 O.2   157  ASN157     -0.2718
     81  CB        -1.3850   37.8270   25.9590 C.3   157  ASN157      0.1169
     82  CG        -2.4120   36.9150   25.4120 C.2   157  ASN157      0.2627
     83  OD1       -3.3870   36.6220   26.0440 O.2   157  ASN157     -0.2716
     84  ND2       -2.2200   36.4980   24.2020 N.am  157  ASN157     -0.0877
     85  N          0.9920   35.7020   26.3360 N.am  158  ALA158     -0.1979
     86  CA         1.6350   34.4260   26.1970 C.3   158  ALA158      0.1597
     87  C          1.8040   33.7460   27.5500 C.2   158  ALA158      0.2287
     88  O          1.2790   32.6010   27.7450 O.2   158  ALA158     -0.2864
     89  CB         2.9180   34.5860   25.5290 C.3   158  ALA158      0.0319
     90  N         -1.5200   32.5180   29.0530 N.3   161  ASN161     -0.1225
     91  CA        -1.9450   31.2980   28.3250 C.3   161  ASN161      0.1785
     92  C         -1.2080   30.0230   28.6500 C.2   161  ASN161      0.2597
     93  O         -1.8390   28.9710   28.8340 O.2   161  ASN161     -0.2718
     94  CB        -1.7660   31.4660   26.8360 C.3   161  ASN161      0.1169
     95  CG        -3.0020   31.9440   26.1620 C.2   161  ASN161      0.2627
     96  OD1       -4.1050   31.9960   26.7550 O.2   161  ASN161     -0.2716
     97  ND2       -2.8450   32.3030   24.9040 N.am  161  ASN161     -0.0877
     98  N          0.1340   30.0800   28.6700 N.am  162  ILE162     -0.1980
     99  CA         0.8810   28.8750   29.0240 C.3   162  ILE162      0.1595
    100  C          0.5270   28.4200   30.4360 C.2   162  ILE162      0.2287
    101  O          0.3810   27.2130   30.6910 O.2   162  ILE162     -0.2864
    102  CB         2.3460   29.0950   28.8470 C.3   162  ILE162      0.0276
    103  CG1        2.5740   29.4850   27.4030 C.3   162  ILE162      0.0022
    104  CG2        3.1550   27.8910   29.2000 C.3   162  ILE162      0.0022
    105  CD1        3.8570   30.1400   27.1570 C.3   162  ILE162      0.0001
    106  N         -2.3870   28.9480   32.0190 N.3   164  ALA164     -0.1231
    107  CA        -3.7740   28.4650   31.9710 C.3   164  ALA164      0.1694
    108  C         -3.9110   27.1400   31.2420 C.2   164  ALA164      0.2591
    109  O         -4.4370   26.1740   31.7490 O.2   164  ALA164     -0.2718
    110  CB        -4.6750   29.5040   31.3130 C.3   164  ALA164      0.0304
    111  N         -3.4470   27.1080   30.0310 N.am  165  GLU165     -0.1979
    112  CA        -3.4130   25.8750   29.2840 C.3   165  GLU165      0.1602
    113  C         -2.6600   24.7310   29.9600 C.2   165  GLU165      0.2287
    114  O         -2.9030   23.5950   29.5740 O.2   165  GLU165     -0.2864
    115  CB        -2.9100   26.1510   27.8430 C.3   165  GLU165      0.0415
    116  CG        -1.7000   25.3670   27.3390 C.3   165  GLU165      0.1163
    117  CD        -1.1090   26.0460   26.0840 C.2   165  GLU165      0.3649
    118  OE1        0.0670   25.7910   25.7300 O.co2 165  GLU165     -0.2457
    119  OE2       -1.8160   26.8720   25.4640 O.co2 165  GLU165     -0.2457
    120  N         -4.8560   27.7990   36.4630 N.3   169  LEU169     -0.1245
    121  CA        -5.9590   28.6470   36.0530 C.3   169  LEU169      0.1561
    122  C         -5.9970   29.9540   36.7970 C.2   169  LEU169      0.2260
    123  O         -6.2310   31.0070   36.1850 O.2   169  LEU169     -0.2867
    124  CB        -7.3130   27.9390   36.2200 C.3   169  LEU169      0.0270
    125  CG        -7.6050   26.7590   35.2920 C.3   169  LEU169      0.0019
    126  CD1       -8.9240   26.0580   35.6280 C.3   169  LEU169      0.0001
    127  CD2       -7.5420   27.1840   33.8110 C.3   169  LEU169      0.0001
    128  N         -4.4820   37.6970   33.2640 N.3   176  PHE176     -0.1241
    129  CA        -5.3220   38.3150   32.2410 C.3   176  PHE176      0.1605
    130  C         -5.9530   39.5350   32.8430 C.2   176  PHE176      0.2264
    131  O         -6.0370   40.5780   32.1880 O.2   176  PHE176     -0.2867
    132  CB        -6.3720   37.4100   31.7200 C.3   176  PHE176      0.0534
    133  CG        -5.8710   36.2610   30.9670 C.ar  176  PHE176     -0.0203
    134  CD1       -5.1570   36.4340   29.7920 C.ar  176  PHE176     -0.0042
    135  CD2       -6.1370   34.9830   31.4020 C.ar  176  PHE176     -0.0042
    136  CE1       -4.6640   35.3590   29.0480 C.ar  176  PHE176     -0.0003
    137  CE2       -5.6830   33.8600   30.6600 C.ar  176  PHE176     -0.0003
    138  CZ        -4.9420   34.0610   29.4690 C.ar  176  PHE176     -0.0000
    139  N         -8.5730   39.4520   22.0280 N.3   195  LYS195     -0.1245
    140  CA        -7.8600   38.1880   22.1990 C.3   195  LYS195      0.1561
    141  C         -7.7080   37.8790   23.7130 C.2   195  LYS195      0.2260
    142  O         -8.0020   36.7490   24.1860 O.2   195  LYS195     -0.2867
    143  CB        -6.5110   38.3010   21.5050 C.3   195  LYS195      0.0271
    144  CG        -5.8180   37.0030   21.2120 C.3   195  LYS195      0.0035
    145  CD        -5.4490   36.9760   19.6960 C.3   195  LYS195      0.0206
    146  CE        -4.0070   37.4340   19.3740 C.3   195  LYS195      0.1093
    147  NZ        -3.9000   37.9800   17.9400 N.3   195  LYS195     -0.1314
    148  N        -10.8630   36.8090   25.1360 N.3   198  TYR198     -0.1227
    149  CA       -11.2820   35.4660   24.7940 C.3   198  TYR198      0.1736
    150  C        -10.6250   34.5400   25.7800 C.2   198  TYR198      0.2595
    151  O        -11.2860   33.7510   26.4220 O.2   198  TYR198     -0.2718
    152  CB       -10.8280   35.0980   23.3980 C.3   198  TYR198      0.0548
    153  CG       -11.1150   33.6990   23.0040 C.ar  198  TYR198     -0.0200
    154  CD1      -10.0990   32.8440   22.5260 C.ar  198  TYR198     -0.0009
    155  CD2      -12.4070   33.2000   23.0840 C.ar  198  TYR198     -0.0009
    156  CE1      -10.4170   31.4820   22.1140 C.ar  198  TYR198      0.0417
    157  CE2      -12.7110   31.8830   22.7090 C.ar  198  TYR198      0.0417
    158  CZ       -11.7430   31.0480   22.2100 C.ar  198  TYR198      0.1957
    159  OH       -12.1520   29.7620   21.8420 O.3   198  TYR198     -0.2866
    160  N         -9.3120   34.6610   25.9410 N.am  199  ASN199     -0.1974
    161  CA        -8.5720   33.6820   26.7450 C.3   199  ASN199      0.1688
    162  C         -8.9950   33.7790   28.2230 C.2   199  ASN199      0.2292
    163  O         -9.1720   32.7990   28.9360 O.2   199  ASN199     -0.2864
    164  CB        -7.0770   33.9220   26.5790 C.3   199  ASN199      0.1181
    165  CG        -6.5960   33.6820   25.1420 C.2   199  ASN199      0.2629
    166  OD1       -7.0460   32.7360   24.4910 O.2   199  ASN199     -0.2716
    167  ND2       -5.6620   34.5290   24.6530 N.am  199  ASN199     -0.0877
    168  N        -12.0780   31.7650   28.6180 N.3   202  LYS202     -0.1231
    169  CA       -11.8800   30.3200   28.5700 C.3   202  LYS202      0.1693
    170  C        -11.3730   29.8630   29.8920 C.2   202  LYS202      0.2591
    171  O        -11.8270   28.8290   30.3870 O.2   202  LYS202     -0.2718
    172  CB       -10.8790   29.9250   27.4910 C.3   202  LYS202      0.0285
    173  CG       -11.5330   29.6440   26.1340 C.3   202  LYS202      0.0035
    174  CD       -10.4770   29.2230   25.0680 C.3   202  LYS202      0.0206
    175  CE        -9.4030   28.3130   25.7400 C.3   202  LYS202      0.1093
    176  NZ        -9.9320   27.0100   26.3570 N.3   202  LYS202     -0.1314
    177  N        -10.4470   30.6320   30.4770 N.am  203  ALA203     -0.1980
    178  CA        -9.8060   30.2160   31.7220 C.3   203  ALA203      0.1597
    179  C        -10.8450   30.2900   32.8310 C.2   203  ALA203      0.2287
    180  O        -10.9330   29.3700   33.6820 O.2   203  ALA203     -0.2864
    181  CB        -8.5750   31.0410   32.0500 C.3   203  ALA203      0.0319
    182  N        -12.9750   27.1950   32.5580 N.3   206  LEU206     -0.1245
    183  CA       -12.4040   25.9900   33.1570 C.3   206  LEU206      0.1561
    184  C        -12.3200   26.0310   34.6880 C.2   206  LEU206      0.2260
    185  O        -12.1610   24.9810   35.3150 O.2   206  LEU206     -0.2867
    186  CB       -11.0440   25.6200   32.5380 C.3   206  LEU206      0.0270
    187  CG       -11.1020   25.2190   31.0530 C.3   206  LEU206      0.0019
    188  CD1       -9.7290   24.9620   30.5920 C.3   206  LEU206      0.0001
    189  CD2      -12.0290   23.9650   30.7880 C.3   206  LEU206      0.0001
    190  N        -11.9100   36.3310   15.9090 N.3   232  LEU232     -0.1245
    191  CA       -12.2440   35.4050   16.9940 C.3   232  LEU232      0.1561
    192  C        -13.7280   35.2500   17.2620 C.2   232  LEU232      0.2260
    193  O        -14.1090   34.5500   18.1860 O.2   232  LEU232     -0.2867
    194  CB       -11.5730   35.8530   18.3170 C.3   232  LEU232      0.0270
    195  CG       -10.0610   35.5380   18.3200 C.3   232  LEU232      0.0019
    196  CD1       -9.3890   36.0180   19.5470 C.3   232  LEU232      0.0001
    197  CD2       -9.8420   34.0300   18.1450 C.3   232  LEU232      0.0001
    198  N        -15.3340   31.7450   17.6060 N.3   235  GLN235     -0.1245
    199  CA       -14.9800   31.1220   18.8560 C.3   235  GLN235      0.1566
    200  C        -15.7440   31.7340   19.9980 C.2   235  GLN235      0.2260
    201  O        -16.1060   31.0230   20.9190 O.2   235  GLN235     -0.2867
    202  CB       -13.4950   31.2070   19.1280 C.3   235  GLN235      0.0367
    203  CG       -12.7080   30.3800   18.1560 C.3   235  GLN235      0.0905
    204  CD       -12.3180   31.2300   16.9940 C.2   235  GLN235      0.2608
    205  OE1      -13.1050   32.0870   16.5470 O.2   235  GLN235     -0.2717
    206  NE2      -11.0760   31.0580   16.5260 N.am  235  GLN235     -0.0878
    207  N        -19.3510   30.5250   20.2710 N.3   238  TYR238     -0.1241
    208  CA       -19.2020   29.1490   20.7490 C.3   238  TYR238      0.1605
    209  C        -19.0680   29.1340   22.2480 C.2   238  TYR238      0.2264
    210  O        -19.7670   28.4060   22.9580 O.2   238  TYR238     -0.2867
    211  CB       -17.9200   28.5580   20.1880 C.3   238  TYR238      0.0534
    212  CG       -17.6980   27.1500   20.6210 C.ar  238  TYR238     -0.0201
    213  CD1      -18.2710   26.1040   19.9130 C.ar  238  TYR238     -0.0009
    214  CD2      -16.9610   26.8600   21.7610 C.ar  238  TYR238     -0.0009
    215  CE1      -18.1040   24.8140   20.3180 C.ar  238  TYR238      0.0417
    216  CE2      -16.7860   25.5920   22.1600 C.ar  238  TYR238      0.0417
    217  CZ       -17.3610   24.5680   21.4350 C.ar  238  TYR238      0.1957
    218  OH       -17.1960   23.2700   21.8230 O.3   238  TYR238     -0.2866
    219  N        -18.1740   29.6510   11.2970 N.3   265  PHE265     -0.1241
    220  CA       -17.2450   28.6020   10.9460 C.3   265  PHE265      0.1605
    221  C        -17.2630   28.1600    9.4780 C.2   265  PHE265      0.2264
    222  O        -16.1900   27.8070    8.9730 O.2   265  PHE265     -0.2867
    223  CB       -17.3710   27.4220   11.9090 C.3   265  PHE265      0.0534
    224  CG       -16.9180   27.7380   13.3000 C.ar  265  PHE265     -0.0203
    225  CD1      -16.0120   28.7630   13.5300 C.ar  265  PHE265     -0.0042
    226  CD2      -17.3970   27.0070   14.3860 C.ar  265  PHE265     -0.0042
    227  CE1      -15.6060   29.0590   14.8070 C.ar  265  PHE265     -0.0003
    228  CE2      -16.9600   27.2890   15.6900 C.ar  265  PHE265     -0.0003
    229  CZ       -16.0770   28.2960   15.9000 C.ar  265  PHE265     -0.0000
    230  N        -12.3290   23.9100   13.6630 N.3   273  TYR273     -0.1241
    231  CA       -13.2170   24.4570   14.6910 C.3   273  TYR273      0.1605
    232  C        -14.6290   23.9890   14.4400 C.2   273  TYR273      0.2264
    233  O        -15.3800   23.7420   15.3780 O.2   273  TYR273     -0.2867
    234  CB       -13.1820   25.9860   14.7570 C.3   273  TYR273      0.0534
    235  CG       -11.8940   26.5670   15.2980 C.ar  273  TYR273     -0.0201
    236  CD1      -11.7990   26.9550   16.6160 C.ar  273  TYR273     -0.0009
    237  CD2      -10.7730   26.7380   14.4810 C.ar  273  TYR273     -0.0009
    238  CE1      -10.6320   27.4850   17.1310 C.ar  273  TYR273      0.0417
    239  CE2       -9.5930   27.2740   14.9870 C.ar  273  TYR273      0.0417
    240  CZ        -9.5380   27.6470   16.3210 C.ar  273  TYR273      0.1957
    241  OH        -8.3930   28.1870   16.8580 O.3   273  TYR273     -0.2866
    242  N        -15.2310   20.0170   16.0500 N.3   276  ALA276     -0.1245
    243  CA       -15.6650   20.0190   17.4410 C.3   276  ALA276      0.1562
    244  C        -17.1360   20.3970   17.5460 C.2   276  ALA276      0.2260
    245  O        -17.9450   19.6100   18.0470 O.2   276  ALA276     -0.2867
    246  CB       -14.8020   20.9670   18.2740 C.3   276  ALA276      0.0290
@<TRIPOS>BOND
     1   222   221    2
     2   221   220    1
     3   220   219    1
     4   220   223    1
     5   223   224    1
     6     7     8    1
     7     9    10    2
     8     9     8    1
     9     1     2    1
    10    16    17    1
    11   224   225   ar
    12   224   226   ar
    13     8    11    1
    14   225   227   ar
    15   230   231    1
    16    18    19    2
    17    18    17    1
    18     3     2    1
    19     3     4    2
    20    11    12    1
    21     2     5    1
    22    17    20    1
    23   226   228   ar
    24   232   231    1
    25   232   233    2
    26   237   239   ar
    27   237   235   ar
    28   231   234    1
    29   234   235    1
    30   227   229   ar
    31   239   240   ar
    32     5     6    1
    33    12    13    1
    34   235   236   ar
    35    13    14    1
    36    20    21    1
    37   228   229   ar
    38    14    15    1
    39   190   191    1
    40   242   243    1
    41    23    21   ar
    42    23    25   ar
    43    21    22   ar
    44   240   241    1
    45   240   238   ar
    46   206   204   am
    47   205   204    2
    48   236   238   ar
    49    25    26   ar
    50    22    24   ar
    51   191   192    1
    52   191   194    1
    53   204   203    1
    54    47    48    1
    55    47    46    1
    56   192   193    2
    57    26    24   ar
    58    26    27    1
    59   243   244    1
    60   243   246    1
    61   244   245    2
    62   198   199    1
    63    48    50   am
    64    48    49    2
    65    46    43    1
    66   147   146    1
    67   197   195    1
    68   203   202    1
    69   194   195    1
    70   195   196    1
    71    75    74    1
    72   199   202    1
    73   199   200    1
    74    45    44    2
    75    43    44    1
    76    43    42    1
    77   146   145    1
    78   145   144    1
    79    74    76    1
    80    74    71    1
    81   213   215   ar
    82   213   212   ar
    83   200   201    2
    84    73    72    2
    85    42    30   am
    86    40    41   ar
    87    40    38   ar
    88    72    71    1
    89   211   212    1
    90   211   208    1
    91   207   208    1
    92   215   217   ar
    93    41    39   ar
    94   212   214   ar
    95    38    35   ar
    96   208   209    1
    97    71    70    1
    98    53    54    2
    99    53    52    1
   100    39    37   ar
   101   144   143    1
   102    30    31    2
   103    30    29    1
   104   217   218    1
   105   217   216   ar
   106    35    37   ar
   107    35    33   ar
   108   143   140    1
   109    56    55    1
   110    70    60   am
   111    37    36   ar
   112   214   216   ar
   113   159   158    1
   114    55    52    1
   115    55    57    1
   116    28    29    1
   117   139   140    1
   118   156   158   ar
   119   156   154   ar
   120    52    51    1
   121    33    32    1
   122    33    34   ar
   123   140   141    1
   124   158   157   ar
   125    32    29    1
   126   209   210    2
   127    58    59    1
   128   154   153   ar
   129    36    34   ar
   130    60    61    2
   131    60    59    1
   132   157   155   ar
   133   153   155   ar
   134   153   152    1
   135   152   149    1
   136    59    62    1
   137   141   142    2
   138    62    63    1
   139    84    82   am
   140   166   165    2
   141   167   165   am
   142    65    63   ar
   143    65    67   ar
   144   149   148    1
   145   149   150    1
   146    97    95   am
   147    63    64   ar
   148   174   175    1
   149   174   173    1
   150   165   164    1
   151    67    68   ar
   152    82    81    1
   153    82    83    2
   154   119   117   ar
   155    89    86    1
   156   118   117   ar
   157   175   176    1
   158   150   160   am
   159   150   151    2
   160   160   161    1
   161    81    78    1
   162    64    66   ar
   163   117   116    1
   164   173   172    1
   165    95    96    2
   166    95    94    1
   167    86    85    1
   168    86    87    1
   169    85    79   am
   170    68    66   ar
   171    68    69    1
   172   164   161    1
   173   161   162    1
   174    94    91    1
   175    79    78    1
   176    79    80    2
   177   105   103    1
   178    78    77    1
   179   116   115    1
   180   103   102    1
   181   172   169    1
   182    87    88    2
   183   115   112    1
   184   162   163    2
   185    91    92    1
   186    91    90    1
   187   169   168    1
   188   169   170    1
   189    92    98   am
   190    92    93    2
   191    98    99    1
   192   102    99    1
   193   102   104    1
   194    99   100    1
   195   136   138   ar
   196   136   134   ar
   197   112   113    1
   198   112   111    1
   199   138   137   ar
   200   114   113    2
   201   134   133   ar
   202   170   171    2
   203   170   177   am
   204   111   108   am
   205   100   101    2
   206   177   178    1
   207   188   187    1
   208   137   135   ar
   209   189   187    1
   210   133   135   ar
   211   133   132    1
   212   187   186    1
   213   108   109    2
   214   108   107    1
   215   110   107    1
   216   132   129    1
   217   178   181    1
   218   178   179    1
   219   107   106    1
   220   131   130    2
   221   129   130    1
   222   129   128    1
   223   186   183    1
   224   182   183    1
   225   179   180    2
   226   183   184    1
   227   127   125    1
   228   184   185    2
   229   125   126    1
   230   125   124    1
   231   121   124    1
   232   121   120    1
   233   121   122    1
   234   123   122    2
