@<TRIPOS>MOLECULE
tmp/2qfoA01.pdb
 113 106 0 0 0
SMALL
GASTEIGER

@<TRIPOS>ATOM
      1  N          4.5200   36.7120   43.6650 N.3    35  ASN35      -0.1240
      2  CA         4.1480   36.5410   45.0650 C.3    35  ASN35       0.1653
      3  C          5.4090   36.4280   45.9270 C.2    35  ASN35       0.2266
      4  O          5.4670   36.9770   47.0280 O.2    35  ASN35      -0.2867
      5  CB         3.2890   35.2850   45.2690 C.3    35  ASN35       0.1155
      6  CG         1.8380   35.4930   44.8810 C.2    35  ASN35       0.2627
      7  OD1        1.3740   36.6240   44.7380 O.2    35  ASN35      -0.2716
      8  ND2        1.1070   34.3940   44.7270 N.am   35  ASN35      -0.0877
      9  N          6.9330   39.8170   46.3800 N.3    38  ASP38      -0.1225
     10  CA         6.1880   40.5980   47.3650 C.3    38  ASP38       0.1805
     11  C          6.5460   40.1350   48.7780 C.2    38  ASP38       0.2597
     12  O          6.6800   40.9480   49.6960 O.2    38  ASP38      -0.2718
     13  CB         4.6770   40.4530   47.1510 C.3    38  ASP38       0.1424
     14  CG         4.2000   41.0880   45.8560 C.2    38  ASP38       0.3668
     15  OD1        5.0010   41.7710   45.1870 O.co2  38  ASP38      -0.2456
     16  OD2        3.0120   40.9100   45.5080 O.co2  38  ASP38      -0.2456
     17  N          6.7030   38.8260   48.9500 N.am   39  ALA39      -0.1979
     18  CA         7.0390   38.2650   50.2560 C.3    39  ALA39       0.1597
     19  C          8.4340   38.7050   50.6830 C.2    39  ALA39       0.2287
     20  O          8.6980   38.9110   51.8740 O.2    39  ALA39      -0.2864
     21  CB         6.9620   36.7430   50.2050 C.3    39  ALA39       0.0319
     22  N          8.4150   42.3450   51.8710 N.3    42  LYS42      -0.1245
     23  CA         7.8940   42.4240   53.2320 C.3    42  LYS42       0.1561
     24  C          8.9470   42.1770   54.3030 C.2    42  LYS42       0.2260
     25  O          9.0680   42.9590   55.2420 O.2    42  LYS42      -0.2867
     26  CB         6.7320   41.4380   53.4080 C.3    42  LYS42       0.0271
     27  CG         6.0830   41.4550   54.7890 C.3    42  LYS42       0.0035
     28  CD         4.9090   40.4780   54.8470 C.3    42  LYS42       0.0206
     29  CE         4.2670   40.4140   56.2350 C.3    42  LYS42       0.1093
     30  NZ         3.1690   39.3840   56.3270 N.3    42  LYS42      -0.1314
     31  N          8.9130   36.6550   53.7870 N.3    80  ILE80      -0.1245
     32  CA         8.3510   36.7470   55.1290 C.3    80  ILE80       0.1561
     33  C          7.7150   35.4530   55.6390 C.2    80  ILE80       0.2260
     34  O          7.6590   35.2130   56.8490 O.2    80  ILE80      -0.2867
     35  CB         7.2920   37.8730   55.1860 C.3    80  ILE80       0.0252
     36  CG1        6.8550   38.1190   56.6300 C.3    80  ILE80       0.0019
     37  CG2        6.1060   37.5060   54.3220 C.3    80  ILE80       0.0019
     38  CD1        7.8970   38.8260   57.4660 C.3    80  ILE80       0.0001
     39  N          4.5360   32.5360   56.1070 N.3    82  MET82      -0.1245
     40  CA         3.1770   32.6450   56.6280 C.3    82  MET82       0.1570
     41  C          2.9940   31.8830   57.9290 C.2    82  MET82       0.2261
     42  O          3.4760   30.7600   58.0770 O.2    82  MET82      -0.2867
     43  CB         2.1600   32.0920   55.6170 C.3    82  MET82       0.0387
     44  CG         1.9680   32.9200   54.3580 C.3    82  MET82       0.0595
     45  SD         0.8390   32.1100   53.1940 S.3    82  MET82      -0.1393
     46  CE         1.9900   31.0700   52.3300 C.3    82  MET82       0.0692
     47  N         -4.9490   33.4390   53.9190 N.3    90  ASN90      -0.1225
     48  CA        -4.4380   33.7740   52.5930 C.3    90  ASN90       0.1785
     49  C         -4.8610   32.8310   51.4850 C.2    90  ASN90       0.2597
     50  O         -5.1890   33.2680   50.3860 O.2    90  ASN90      -0.2718
     51  CB        -2.9070   33.8180   52.5970 C.3    90  ASN90       0.1169
     52  CG        -2.3560   35.0720   53.2360 C.2    90  ASN90       0.2627
     53  OD1       -3.1050   35.9400   53.6770 O.2    90  ASN90      -0.2716
     54  ND2       -1.0320   35.1750   53.2840 N.am   90  ASN90      -0.0877
     55  N         -4.8380   31.5340   51.7680 N.am   91  LEU91      -0.1980
     56  CA        -5.1750   30.5500   50.7500 C.3    91  LEU91       0.1596
     57  C         -6.5780   29.9670   50.8230 C.2    91  LEU91       0.2287
     58  O         -7.0650   29.4100   49.8410 O.2    91  LEU91      -0.2864
     59  CB        -4.1420   29.4160   50.7800 C.3    91  LEU91       0.0297
     60  CG        -2.6940   29.8810   50.5920 C.3    91  LEU91       0.0022
     61  CD1       -1.7560   28.6800   50.4880 C.3    91  LEU91       0.0001
     62  CD2       -2.6060   30.7260   49.3330 C.3    91  LEU91       0.0001
     63  N         -9.5010   31.7790   52.0070 N.3    93  THR93      -0.1218
     64  CA       -10.5940   32.7460   51.9550 C.3    93  THR93       0.1862
     65  C        -10.3030   33.9060   51.0100 C.2    93  THR93       0.2287
     66  O         -9.1790   34.0730   50.5420 O.2    93  THR93      -0.2866
     67  CB       -10.8650   33.3500   53.3430 C.3    93  THR93       0.1770
     68  OG1       -9.8180   34.2730   53.6710 O.3    93  THR93      -0.2211
     69  CG2      -10.9150   32.2630   54.4030 C.3    93  THR93       0.0375
     70  N         -8.1290   39.8180   48.9170 N.3    97  SER97      -0.1217
     71  CA        -8.0140   39.6140   47.4750 C.3    97  SER97       0.1889
     72  C         -9.2020   40.1810   46.7100 C.2    97  SER97       0.2288
     73  O        -10.2300   40.5310   47.2950 O.2    97  SER97      -0.2866
     74  CB        -7.9070   38.1210   47.1560 C.3    97  SER97       0.2089
     75  OG        -9.1860   37.5060   47.1880 O.3    97  SER97      -0.2183
     76  N         -5.0890   40.1310   43.0280 N.3   119  GLY119     -0.1210
     77  CA        -4.5930   39.5310   44.2540 C.3   119  GLY119      0.1956
     78  C         -4.8200   38.0450   44.4570 C.2   119  GLY119      0.2612
     79  O         -4.7870   37.5670   45.5910 O.2   119  GLY119     -0.2717
     80  N         -5.0440   37.3090   43.3750 N.am  120  VAL120     -0.1965
     81  CA        -5.2690   35.8710   43.4770 C.3   120  VAL120      0.1727
     82  C         -4.3950   35.0790   42.5110 C.2   120  VAL120      0.2617
     83  O         -4.7620   33.9890   42.0740 O.2   120  VAL120     -0.2715
     84  CB        -6.7580   35.5180   43.2300 C.3   120  VAL120      0.0290
     85  CG1       -7.5980   35.9770   44.4150 C.3   120  VAL120      0.0023
     86  CG2       -7.2490   36.1760   41.9570 C.3   120  VAL120      0.0023
     87  N         -3.2250   35.6300   42.2000 N.am  121  GLY121     -0.1940
     88  CA        -2.3010   34.9760   41.2910 C.3   121  GLY121      0.2014
     89  C         -1.8690   33.5870   41.7280 C.2   121  GLY121      0.2639
     90  O         -1.5110   32.7650   40.8910 O.2   121  GLY121     -0.2714
     91  N         -1.8930   33.3220   43.0300 N.am  122  PHE122     -0.1959
     92  CA        -1.5010   32.0090   43.5410 C.3   122  PHE122      0.1771
     93  C         -2.2910   30.8780   42.8850 C.2   122  PHE122      0.2619
     94  O         -1.7380   29.8390   42.5300 O.2   122  PHE122     -0.2715
     95  CB        -1.7230   31.9250   45.0570 C.3   122  PHE122      0.0574
     96  CG        -1.6090   30.5250   45.6020 C.ar  122  PHE122     -0.0200
     97  CD1       -0.3680   29.9460   45.8100 C.ar  122  PHE122     -0.0042
     98  CD2       -2.7440   29.7700   45.8530 C.ar  122  PHE122     -0.0042
     99  CE1       -0.2560   28.6380   46.2570 C.ar  122  PHE122     -0.0003
    100  CE2       -2.6430   28.4570   46.2990 C.ar  122  PHE122     -0.0003
    101  CZ        -1.3980   27.8900   46.5010 C.ar  122  PHE122     -0.0000
    102  N         -3.5920   31.0810   42.7280 N.am  123  TYR123     -0.1974
    103  CA        -4.4350   30.0410   42.1540 C.3   123  TYR123      0.1639
    104  C         -4.1550   29.6880   40.6970 C.2   123  TYR123      0.2290
    105  O         -4.6660   28.6820   40.1990 O.2   123  TYR123     -0.2864
    106  CB        -5.9050   30.4110   42.3600 C.3   123  TYR123      0.0560
    107  CG        -6.2390   30.5810   43.8250 C.ar  123  TYR123     -0.0198
    108  CD1       -6.3620   29.4800   44.6670 C.ar  123  TYR123     -0.0009
    109  CD2       -6.3750   31.8460   44.3790 C.ar  123  TYR123     -0.0009
    110  CE1       -6.6110   29.6390   46.0250 C.ar  123  TYR123      0.0417
    111  CE2       -6.6230   32.0140   45.7300 C.ar  123  TYR123      0.0417
    112  CZ        -6.7370   30.9100   46.5470 C.ar  123  TYR123      0.1957
    113  OH        -6.9610   31.0910   47.8920 O.3   123  TYR123     -0.2866
@<TRIPOS>BOND
     1   105   104    2
     2   104   103    1
     3    90    89    2
     4    88    89    1
     5    88    87    1
     6    89    91   am
     7    86    84    1
     8    83    82    2
     9   103   106    1
    10   103   102    1
    11    87    82   am
    12   106   107    1
    13    82    81    1
    14    94    93    2
    15   102    93   am
    16    93    92    1
    17    76    77    1
    18    91    92    1
    19    84    81    1
    20    84    85    1
    21    80    81    1
    22    80    78   am
    23    92    95    1
    24     1     2    1
    25   107   109   ar
    26   107   108   ar
    27    77    78    1
    28   109   111   ar
    29    78    79    2
    30   108   110   ar
    31     8     6   am
    32     7     6    2
    33     6     5    1
    34    95    96    1
    35     2     5    1
    36     2     3    1
    37    15    14   ar
    38    16    14   ar
    39    96    97   ar
    40    96    98   ar
    41   111   112   ar
    42    97    99   ar
    43    98   100   ar
    44    14    13    1
    45     3     4    2
    46   110   112   ar
    47    99   101   ar
    48   100   101   ar
    49     9    10    1
    50   112   113    1
    51    72    73    2
    52    72    71    1
    53    13    10    1
    54    74    75    1
    55    74    71    1
    56    10    11    1
    57    71    70    1
    58    11    17   am
    59    11    12    2
    60    17    18    1
    61    62    60    1
    62    58    57    2
    63    21    18    1
    64    18    19    1
    65    50    49    2
    66    61    60    1
    67    66    65    2
    68    60    59    1
    69    19    20    2
    70    56    59    1
    71    56    57    1
    72    56    55    1
    73    65    64    1
    74    49    55   am
    75    49    48    1
    76    22    23    1
    77    64    63    1
    78    64    67    1
    79    46    45    1
    80    48    51    1
    81    48    47    1
    82    51    52    1
    83    45    44    1
    84    23    26    1
    85    23    24    1
    86    52    54   am
    87    52    53    2
    88    67    68    1
    89    67    69    1
    90    26    27    1
    91    31    32    1
    92    24    25    2
    93    37    35    1
    94    44    43    1
    95    27    28    1
    96    28    29    1
    97    32    35    1
    98    32    33    1
    99    35    36    1
   100    43    40    1
   101    33    34    2
   102    39    40    1
   103    29    30    1
   104    40    41    1
   105    36    38    1
   106    41    42    2
