@<TRIPOS>MOLECULE
tmp/2qfoA00.pdb
 112 102 0 0 0
SMALL
GASTEIGER

@<TRIPOS>ATOM
      1  N          3.5620   33.2970   40.5520 N.3    32  LEU32      -0.1245
      2  CA         4.1690   32.7630   41.7660 C.3    32  LEU32       0.1561
      3  C          5.4550   33.5120   42.1040 C.2    32  LEU32       0.2260
      4  O          5.7520   33.7690   43.2730 O.2    32  LEU32      -0.2867
      5  CB         4.4480   31.2710   41.6020 C.3    32  LEU32       0.0270
      6  CG         3.1760   30.4310   41.4310 C.3    32  LEU32       0.0019
      7  CD1        3.5600   28.9670   41.2380 C.3    32  LEU32       0.0001
      8  CD2        2.2790   30.5860   42.6500 C.3    32  LEU32       0.0001
      9  N          4.5200   36.7120   43.6650 N.3    35  ASN35      -0.1225
     10  CA         4.1480   36.5410   45.0650 C.3    35  ASN35       0.1785
     11  C          5.4090   36.4280   45.9270 C.2    35  ASN35       0.2597
     12  O          5.4670   36.9770   47.0280 O.2    35  ASN35      -0.2718
     13  CB         3.2890   35.2850   45.2690 C.3    35  ASN35       0.1169
     14  CG         1.8380   35.4930   44.8810 C.2    35  ASN35       0.2627
     15  OD1        1.3740   36.6240   44.7380 O.2    35  ASN35      -0.2716
     16  ND2        1.1070   34.3940   44.7270 N.am   35  ASN35      -0.0877
     17  N          6.4130   35.7070   45.4310 N.am   36  SER36      -0.1952
     18  CA         7.6550   35.5470   46.1760 C.3    36  SER36       0.1924
     19  C          8.3400   36.9020   46.3410 C.2    36  SER36       0.2314
     20  O          8.8290   37.2340   47.4190 O.2    36  SER36      -0.2863
     21  CB         8.5890   34.5640   45.4600 C.3    36  SER36       0.2116
     22  OG         8.0820   33.2380   45.5220 O.3    36  SER36      -0.2180
     23  N          6.7030   38.8260   48.9500 N.3    39  ALA39      -0.1245
     24  CA         7.0390   38.2650   50.2560 C.3    39  ALA39       0.1562
     25  C          8.4340   38.7050   50.6830 C.2    39  ALA39       0.2260
     26  O          8.6980   38.9110   51.8740 O.2    39  ALA39      -0.2867
     27  CB         6.9620   36.7430   50.2050 C.3    39  ALA39       0.0290
     28  N          8.4150   42.3450   51.8710 N.3    42  LYS42      -0.1245
     29  CA         7.8940   42.4240   53.2320 C.3    42  LYS42       0.1561
     30  C          8.9470   42.1770   54.3030 C.2    42  LYS42       0.2260
     31  O          9.0680   42.9590   55.2420 O.2    42  LYS42      -0.2867
     32  CB         6.7320   41.4380   53.4080 C.3    42  LYS42       0.0271
     33  CG         6.0830   41.4550   54.7890 C.3    42  LYS42       0.0035
     34  CD         4.9090   40.4780   54.8470 C.3    42  LYS42       0.0206
     35  CE         4.2670   40.4140   56.2350 C.3    42  LYS42       0.1093
     36  NZ         3.1690   39.3840   56.3270 N.3    42  LYS42      -0.1314
     37  N         11.1520   30.7460   48.0690 N.3    77  ASP77      -0.1239
     38  CA        11.6280   32.0910   48.3750 C.3    77  ASP77       0.1674
     39  C         11.9710   32.1530   49.8510 C.2    77  ASP77       0.2266
     40  O         11.5390   31.3030   50.6380 O.2    77  ASP77      -0.2867
     41  CB        10.5780   33.1670   48.0280 C.3    77  ASP77       0.1410
     42  CG         9.3390   33.1020   48.9000 C.2    77  ASP77       0.3668
     43  OD1        9.4330   33.3280   50.1330 O.co2  77  ASP77      -0.2456
     44  OD2        8.2550   32.8370   48.3420 O.co2  77  ASP77      -0.2456
     45  N          8.9130   36.6550   53.7870 N.3    80  ILE80      -0.1231
     46  CA         8.3510   36.7470   55.1290 C.3    80  ILE80       0.1692
     47  C          7.7150   35.4530   55.6390 C.2    80  ILE80       0.2593
     48  O          7.6590   35.2130   56.8490 O.2    80  ILE80      -0.2718
     49  CB         7.2920   37.8730   55.1860 C.3    80  ILE80       0.0266
     50  CG1        6.8550   38.1190   56.6300 C.3    80  ILE80       0.0019
     51  CG2        6.1060   37.5060   54.3220 C.3    80  ILE80       0.0020
     52  CD1        7.8970   38.8260   57.4660 C.3    80  ILE80       0.0001
     53  N          7.2290   34.6160   54.7280 N.am   81  GLY81      -0.1942
     54  CA         6.6040   33.3780   55.1600 C.3    81  GLY81       0.2014
     55  C          5.2030   33.6090   55.6940 C.2    81  GLY81       0.2638
     56  O          4.7280   34.7450   55.7350 O.2    81  GLY81      -0.2714
     57  N          4.5360   32.5360   56.1070 N.am   82  MET82      -0.1976
     58  CA         3.1770   32.6450   56.6280 C.3    82  MET82       0.1605
     59  C          2.9940   31.8830   57.9290 C.2    82  MET82       0.2287
     60  O          3.4760   30.7600   58.0770 O.2    82  MET82      -0.2864
     61  CB         2.1600   32.0920   55.6170 C.3    82  MET82       0.0413
     62  CG         1.9680   32.9200   54.3580 C.3    82  MET82       0.0598
     63  SD         0.8390   32.1100   53.1940 S.3    82  MET82      -0.1393
     64  CE         1.9900   31.0700   52.3300 C.3    82  MET82       0.0692
     65  N         -4.9490   33.4390   53.9190 N.3    90  ASN90      -0.1225
     66  CA        -4.4380   33.7740   52.5930 C.3    90  ASN90       0.1785
     67  C         -4.8610   32.8310   51.4850 C.2    90  ASN90       0.2597
     68  O         -5.1890   33.2680   50.3860 O.2    90  ASN90      -0.2718
     69  CB        -2.9070   33.8180   52.5970 C.3    90  ASN90       0.1169
     70  CG        -2.3560   35.0720   53.2360 C.2    90  ASN90       0.2627
     71  OD1       -3.1050   35.9400   53.6770 O.2    90  ASN90      -0.2716
     72  ND2       -1.0320   35.1750   53.2840 N.am   90  ASN90      -0.0877
     73  N         -4.8380   31.5340   51.7680 N.am   91  LEU91      -0.1980
     74  CA        -5.1750   30.5500   50.7500 C.3    91  LEU91       0.1596
     75  C         -6.5780   29.9670   50.8230 C.2    91  LEU91       0.2287
     76  O         -7.0650   29.4100   49.8410 O.2    91  LEU91      -0.2864
     77  CB        -4.1420   29.4160   50.7800 C.3    91  LEU91       0.0297
     78  CG        -2.6940   29.8810   50.5920 C.3    91  LEU91       0.0022
     79  CD1       -1.7560   28.6800   50.4880 C.3    91  LEU91       0.0001
     80  CD2       -2.6060   30.7260   49.3330 C.3    91  LEU91       0.0001
     81  N         -1.8930   33.3220   43.0300 N.3   122  PHE122     -0.1241
     82  CA        -1.5010   32.0090   43.5410 C.3   122  PHE122      0.1605
     83  C         -2.2910   30.8780   42.8850 C.2   122  PHE122      0.2264
     84  O         -1.7380   29.8390   42.5300 O.2   122  PHE122     -0.2867
     85  CB        -1.7230   31.9250   45.0570 C.3   122  PHE122      0.0534
     86  CG        -1.6090   30.5250   45.6020 C.ar  122  PHE122     -0.0203
     87  CD1       -0.3680   29.9460   45.8100 C.ar  122  PHE122     -0.0042
     88  CD2       -2.7440   29.7700   45.8530 C.ar  122  PHE122     -0.0042
     89  CE1       -0.2560   28.6380   46.2570 C.ar  122  PHE122     -0.0003
     90  CE2       -2.6430   28.4570   46.2990 C.ar  122  PHE122     -0.0003
     91  CZ        -1.3980   27.8900   46.5010 C.ar  122  PHE122     -0.0000
     92  N          2.0910   23.7110   49.8530 N.3   134  VAL134     -0.1245
     93  CA         2.7890   24.9280   50.2420 C.3   134  VAL134      0.1561
     94  C          3.4370   24.7190   51.6020 C.2   134  VAL134      0.2260
     95  O          2.7560   24.4530   52.5900 O.2   134  VAL134     -0.2867
     96  CB         1.8290   26.1400   50.3160 C.3   134  VAL134      0.0252
     97  CG1        2.5780   27.3770   50.8210 C.3   134  VAL134      0.0019
     98  CG2        1.2420   26.4180   48.9340 C.3   134  VAL134      0.0019
     99  N          8.7180   30.5880   51.9410 N.3   168  THR168     -0.1218
    100  CA         7.6330   29.7720   51.4230 C.3   168  THR168      0.1862
    101  C          8.0920   28.9570   50.2230 C.2   168  THR168      0.2287
    102  O          8.8550   29.4320   49.3780 O.2   168  THR168     -0.2866
    103  CB         6.4470   30.6580   51.0010 C.3   168  THR168      0.1770
    104  OG1        5.9810   31.3880   52.1380 O.3   168  THR168     -0.2211
    105  CG2        5.3080   29.8120   50.4340 C.3   168  THR168      0.0375
    106  N          6.4440   26.6360   47.1790 N.3   170  VAL170     -0.1245
    107  CA         5.2260   26.2170   46.4900 C.3   170  VAL170      0.1561
    108  C          5.5800   25.0470   45.5820 C.2   170  VAL170      0.2260
    109  O          6.2780   25.2150   44.5830 O.2   170  VAL170     -0.2867
    110  CB         4.6230   27.3590   45.6390 C.3   170  VAL170      0.0252
    111  CG1        3.3900   26.8480   44.8870 C.3   170  VAL170      0.0019
    112  CG2        4.2490   28.5310   46.5320 C.3   170  VAL170      0.0019
@<TRIPOS>BOND
     1     1     2    1
     2     7     6    1
     3     6     5    1
     4     6     8    1
     5     5     2    1
     6     2     3    1
     7     3     4    2
     8    84    83    2
     9    83    82    1
    10    81    82    1
    11    82    85    1
    12     9    10    1
    13   109   108    2
    14    16    14   am
    15    15    14    2
    16    14    13    1
    17   111   110    1
    18    85    86    1
    19    10    13    1
    20    10    11    1
    21    17    11   am
    22    17    18    1
    23    21    22    1
    24    21    18    1
    25   108   107    1
    26    86    87   ar
    27    86    88   ar
    28   110   107    1
    29   110   112    1
    30    87    89   ar
    31    88    90   ar
    32    11    12    2
    33    18    19    1
    34    89    91   ar
    35    90    91   ar
    36    19    20    2
    37   107   106    1
    38    41    38    1
    39    41    42    1
    40    37    38    1
    41    44    42   ar
    42    38    39    1
    43    42    43   ar
    44    98    96    1
    45    23    24    1
    46    80    78    1
    47   102   101    2
    48    76    75    2
    49    39    40    2
    50    92    93    1
    51    27    24    1
    52   101   100    1
    53    93    96    1
    54    93    94    1
    55    24    25    1
    56    96    97    1
    57    68    67    2
    58   105   103    1
    59    79    78    1
    60    78    77    1
    61    25    26    2
    62    74    77    1
    63    74    75    1
    64    74    73    1
    65   103   100    1
    66   103   104    1
    67   100    99    1
    68    67    73   am
    69    67    66    1
    70    94    95    2
    71    28    29    1
    72    64    63    1
    73    66    69    1
    74    66    65    1
    75    69    70    1
    76    63    62    1
    77    29    32    1
    78    29    30    1
    79    70    72   am
    80    70    71    2
    81    32    33    1
    82    45    46    1
    83    30    31    2
    84    51    49    1
    85    62    61    1
    86    53    54    1
    87    53    47   am
    88    33    34    1
    89    34    35    1
    90    46    49    1
    91    46    47    1
    92    54    55    1
    93    49    50    1
    94    61    58    1
    95    47    48    2
    96    55    56    2
    97    55    57   am
    98    57    58    1
    99    35    36    1
   100    58    59    1
   101    50    52    1
   102    59    60    2
