@<TRIPOS>MOLECULE
tmp/2qfuA00.pdb
 126 116 0 0 0
SMALL
GASTEIGER

@<TRIPOS>ATOM
      1  N         61.8520   18.0360   30.7490 N.3    22  LYS22      -0.1245
      2  CA        62.1850   17.3480   29.4960 C.3    22  LYS22       0.1561
      3  C         60.9800   17.4120   28.5430 C.2    22  LYS22       0.2260
      4  O         61.1330   17.6770   27.3470 O.2    22  LYS22      -0.2867
      5  CB        62.5230   15.8710   29.8010 C.3    22  LYS22       0.0271
      6  CG        62.7230   15.0120   28.5390 C.3    22  LYS22       0.0035
      7  CD        61.6620   13.9130   28.4020 C.3    22  LYS22       0.0206
      8  CE        61.9380   12.7820   29.3880 C.3    22  LYS22       0.1093
      9  NZ        60.7700   11.8550   29.4670 N.3    22  LYS22      -0.1314
     10  N         68.0250   13.3900   26.3500 N.3    49  ASP49      -0.1239
     11  CA        66.8380   13.4720   25.5050 C.3    49  ASP49       0.1674
     12  C         66.7120   14.7920   24.7690 C.2    49  ASP49       0.2266
     13  O         66.2390   14.8140   23.6370 O.2    49  ASP49      -0.2867
     14  CB        65.5600   13.2140   26.3100 C.3    49  ASP49       0.1410
     15  CG        65.3650   11.7460   26.6390 C.2    49  ASP49       0.3668
     16  OD1       66.2040   10.8960   26.2590 O.co2  49  ASP49      -0.2456
     17  OD2       64.3440   11.4660   27.2840 O.co2  49  ASP49      -0.2456
     18  N         61.8810    8.9760   23.7160 N.3    96  GLY96      -0.1210
     19  CA        60.5760    8.7930   23.1080 C.3    96  GLY96       0.1956
     20  C         59.9800   10.1160   22.6590 C.2    96  GLY96       0.2612
     21  O         59.3410   10.2050   21.6000 O.2    96  GLY96      -0.2717
     22  N         60.1800   11.1720   23.4370 N.am   97  THR97      -0.1952
     23  CA        59.5840   12.4420   23.0450 C.3    97  THR97       0.1897
     24  C         60.1520   12.9030   21.7200 C.2    97  THR97       0.2313
     25  O         59.4400   13.5170   20.9290 O.2    97  THR97      -0.2863
     26  CB        59.7450   13.5430   24.1230 C.3    97  THR97       0.1794
     27  OG1       61.1180   13.7000   24.4950 O.3    97  THR97      -0.2208
     28  CG2       58.9280   13.1820   25.3510 C.3    97  THR97       0.0378
     29  N         58.7870    9.9220   18.8780 N.3   100  ARG100     -0.1245
     30  CA        57.3830    9.9940   18.5160 C.3   100  ARG100      0.1563
     31  C         57.0250   11.3150   17.8670 C.2   100  ARG100      0.2260
     32  O         56.3380   11.3450   16.8380 O.2   100  ARG100     -0.2867
     33  CB        56.5020    9.7490   19.7580 C.3   100  ARG100      0.0307
     34  CG        56.2820    8.2700   20.1140 C.3   100  ARG100      0.0489
     35  CD        57.5980    7.5990   20.5420 C.3   100  ARG100      0.2205
     36  NE        57.3990    6.2150   20.9950 N.pl3 100  ARG100     -0.0865
     37  CZ        57.1300    5.8380   22.2480 C.cat 100  ARG100      0.5346
     38  NH1       56.9830    4.5430   22.5320 N.pl3 100  ARG100      0.1354
     39  NH2       57.0130    6.7300   23.2300 N.pl3 100  ARG100      0.1354
     40  N         60.7440   -0.3010   21.6620 N.3   124  ARG124     -0.1245
     41  CA        59.6540    0.5130   22.2220 C.3   124  ARG124      0.1563
     42  C         58.6620    0.7490   21.1020 C.2   124  ARG124      0.2260
     43  O         59.0160    1.2410   20.0290 O.2   124  ARG124     -0.2867
     44  CB        60.2150    1.7950   22.8010 C.3   124  ARG124      0.0307
     45  CG        61.0640    1.5030   24.0590 C.3   124  ARG124      0.0489
     46  CD        61.5360    2.7710   24.7280 C.3   124  ARG124      0.2205
     47  NE        60.3980    3.5570   25.1740 N.pl3 124  ARG124     -0.0865
     48  CZ        60.4470    4.8570   25.4610 C.cat 124  ARG124      0.5346
     49  NH1       59.3410    5.4780   25.8610 N.pl3 124  ARG124      0.1354
     50  NH2       61.5900    5.5280   25.3620 N.pl3 124  ARG124      0.1354
     51  N         51.9500    9.7510   23.8090 N.3   171  GLN171     -0.1245
     52  CA        52.8140   10.4620   22.8760 C.3   171  GLN171      0.1566
     53  C         52.3850   10.3710   21.4280 C.2   171  GLN171      0.2260
     54  O         52.6970   11.2540   20.6210 O.2   171  GLN171     -0.2867
     55  CB        54.2520    9.9740   23.0050 C.3   171  GLN171      0.0367
     56  CG        54.9000   10.3910   24.3190 C.3   171  GLN171      0.0905
     57  CD        56.3430    9.9540   24.3900 C.2   171  GLN171      0.2608
     58  OE1       56.9280    9.5540   23.3890 O.2   171  GLN171     -0.2717
     59  NE2       56.9360   10.0590   25.5760 N.am  171  GLN171     -0.0878
     60  N         55.5320    8.3780   35.6210 N.3   313  ASP313     -0.1239
     61  CA        56.9660    8.5460   35.8510 C.3   313  ASP313      0.1674
     62  C         57.2550    8.8230   37.3220 C.2   313  ASP313      0.2266
     63  O         58.0420    8.1160   37.9530 O.2   313  ASP313     -0.2867
     64  CB        57.5170    9.6870   34.9940 C.3   313  ASP313      0.1410
     65  CG        57.4450    9.3930   33.4990 C.2   313  ASP313      0.3668
     66  OD1       57.8060   10.2960   32.7240 O.co2 313  ASP313     -0.2456
     67  OD2       57.0290    8.2840   33.1070 O.co2 313  ASP313     -0.2456
     68  N         58.7860    1.3720   28.5170 N.3   340  LYS340     -0.1231
     69  CA        59.5630    2.6050   28.5850 C.3   340  LYS340      0.1693
     70  C         61.0670    2.3430   28.5730 C.2   340  LYS340      0.2591
     71  O         61.4860    1.4200   27.8730 O.2   340  LYS340     -0.2718
     72  CB        59.0650    3.4480   29.7630 C.3   340  LYS340      0.0285
     73  CG        57.7500    4.1610   29.3330 C.3   340  LYS340      0.0035
     74  CD        57.0150    4.8440   30.4440 C.3   340  LYS340      0.0206
     75  CE        55.8290    5.5960   29.8320 C.3   340  LYS340      0.1093
     76  NZ        54.9370    6.1060   30.8960 N.3   340  LYS340     -0.1314
     77  N         61.8800    3.0960   29.3200 N.am  341  GLU341     -0.1979
     78  CA        63.3370    2.9030   29.2440 C.3   341  GLU341      0.1602
     79  C         63.7900    1.4760   29.4280 C.2   341  GLU341      0.2287
     80  O         64.7990    1.0600   28.8490 O.2   341  GLU341     -0.2864
     81  CB        64.0550    3.8340   30.2140 C.3   341  GLU341      0.0415
     82  CG        64.0980    5.3140   29.7150 C.3   341  GLU341      0.1163
     83  CD        62.8200    6.1380   29.9760 C.2   341  GLU341      0.3649
     84  OE1       61.7240    5.5650   30.1600 O.co2 341  GLU341     -0.2457
     85  OE2       62.9290    7.3830   29.9690 O.co2 341  GLU341     -0.2457
     86  N         59.8610   -1.4520   33.4310 N.3   344  ARG344     -0.1245
     87  CA        59.9690   -0.9730   34.8010 C.3   344  ARG344      0.1563
     88  C         59.2380   -1.7710   35.8490 C.2   344  ARG344      0.2260
     89  O         59.6050   -1.7270   37.0180 O.2   344  ARG344     -0.2867
     90  CB        59.5510    0.4940   34.8550 C.3   344  ARG344      0.0307
     91  CG        60.5490    1.3740   34.1290 C.3   344  ARG344      0.0489
     92  CD        59.9610    2.7590   33.8240 C.3   344  ARG344      0.2205
     93  NE        61.0420    3.7370   33.6950 N.pl3 344  ARG344     -0.0865
     94  CZ        60.8550    5.0350   33.4630 C.cat 344  ARG344      0.5346
     95  NH1       61.9070    5.8450   33.3820 N.pl3 344  ARG344      0.1354
     96  NH2       59.6230    5.5210   33.2950 N.pl3 344  ARG344      0.1354
     97  N         67.4310    6.1280   33.7840 N.3   385  HIS385     -0.1226
     98  CA        67.6490    7.2310   34.7270 C.3   385  HIS385      0.1752
     99  C         66.8160    7.1160   35.9980 C.2   385  HIS385      0.2595
    100  O         67.3380    7.3470   37.1010 O.2   385  HIS385     -0.2718
    101  CB        67.3450    8.5930   34.0510 C.3   385  HIS385      0.0759
    102  CG        65.9980    8.6760   33.3970 C.ar  385  HIS385      0.0818
    103  ND1       65.2230    9.8100   33.4730 N.ar  385  HIS385     -0.2268
    104  CD2       65.2960    7.7940   32.6430 C.ar  385  HIS385      0.1154
    105  CE1       64.1010    9.6280   32.7940 C.ar  385  HIS385      0.1986
    106  NE2       64.1190    8.4140   32.2790 N.ar  385  HIS385     -0.2212
    107  N         65.5360    6.7590   35.8730 N.am  386  ARG386     -0.1980
    108  CA        64.7070    6.7050   37.0740 C.3   386  ARG386      0.1597
    109  C         64.9900    5.5460   38.0110 C.2   386  ARG386      0.2287
    110  O         64.6860    5.6280   39.2020 O.2   386  ARG386     -0.2864
    111  CB        63.2210    6.7670   36.6910 C.3   386  ARG386      0.0334
    112  CG        62.8820    8.0960   35.9930 C.3   386  ARG386      0.0492
    113  CD        61.3820    8.5120   36.1320 C.3   386  ARG386      0.2205
    114  NE        61.1520    9.5490   35.1300 N.pl3 386  ARG386     -0.0865
    115  CZ        61.5960   10.8030   35.1980 C.cat 386  ARG386      0.5346
    116  NH1       61.3750   11.6130   34.1580 N.pl3 386  ARG386      0.1354
    117  NH2       62.1680   11.2890   36.3080 N.pl3 386  ARG386      0.1354
    118  N         69.8540   10.9450   31.1680 N.3   411  LYS411     -0.1245
    119  CA        68.7690   10.9870   30.1920 C.3   411  LYS411      0.1561
    120  C         67.8990   12.2330   30.4350 C.2   411  LYS411      0.2260
    121  O         67.4550   12.8770   29.4740 O.2   411  LYS411     -0.2867
    122  CB        67.8860    9.7270   30.2600 C.3   411  LYS411      0.0271
    123  CG        66.9620    9.5870   29.0450 C.3   411  LYS411      0.0035
    124  CD        66.2780    8.2190   28.9950 C.3   411  LYS411      0.0206
    125  CE        65.5090    8.0290   27.6990 C.3   411  LYS411      0.1093
    126  NZ        64.1750    8.7240   27.7760 N.3   411  LYS411     -0.1314
@<TRIPOS>BOND
     1    32    31    2
     2    31    30    1
     3    30    29    1
     4    30    33    1
     5    33    34    1
     6    43    42    2
     7    34    35    1
     8    35    36    1
     9    54    53    2
    10    25    24    2
    11    36    37    2
    12    42    41    1
    13    53    52    1
    14    21    20    2
    15    40    41    1
    16    24    23    1
    17    41    44    1
    18    37    38    1
    19    37    39    1
    20    20    19    1
    21    20    22   am
    22    44    45    1
    23    52    55    1
    24    52    51    1
    25    55    56    1
    26    23    22    1
    27    23    26    1
    28    19    18    1
    29    58    57    2
    30    13    12    2
    31    45    46    1
    32    26    27    1
    33    26    28    1
    34    56    57    1
    35    57    59   am
    36    46    47    1
    37    12    11    1
    38    47    48    2
    39    50    48    1
    40    48    49    1
    41    11    14    1
    42    11    10    1
    43    16    15   ar
    44    14    15    1
    45    15    17   ar
    46     4     3    2
    47   125   126    1
    48   125   124    1
    49    71    70    2
    50     7     6    1
    51     7     8    1
    52    68    69    1
    53     6     5    1
    54     3     2    1
    55    70    69    1
    56    70    77   am
    57    69    72    1
    58    80    79    2
    59   124   123    1
    60   123   122    1
    61    78    77    1
    62    78    79    1
    63    78    81    1
    64    73    72    1
    65    73    74    1
    66     8     9    1
    67   121   120    2
    68     2     5    1
    69     2     1    1
    70    82    83    1
    71    82    81    1
    72    75    74    1
    73    75    76    1
    74    85    83   ar
    75    83    84   ar
    76   119   122    1
    77   119   120    1
    78   119   118    1
    79   106   104   ar
    80   106   105   ar
    81   104   102   ar
    82    66    65   ar
    83   105   103   ar
    84    67    65   ar
    85    96    94    1
    86    95    94    1
    87   102   103   ar
    88   102   101    1
    89    86    87    1
    90    94    93    2
    91    65    64    1
    92    93    92    1
    93    97    98    1
    94    92    91    1
    95   101    98    1
    96    91    90    1
    97   116   115    1
    98    98    99    1
    99    87    90    1
   100    87    88    1
   101    64    61    1
   102   114   115    2
   103   114   113    1
   104   115   117    1
   105    60    61    1
   106    88    89    2
   107    61    62    1
   108   107    99   am
   109   107   108    1
   110   112   113    1
   111   112   111    1
   112    99   100    2
   113   111   108    1
   114   108   109    1
   115    62    63    2
   116   109   110    2
