@<TRIPOS>MOLECULE
tmp/2qfuA01.pdb
 164 154 0 0 0
SMALL
GASTEIGER

@<TRIPOS>ATOM
      1  N         61.8520   18.0360   30.7490 N.3    22  LYS22      -0.1231
      2  CA        62.1850   17.3480   29.4960 C.3    22  LYS22       0.1693
      3  C         60.9800   17.4120   28.5430 C.2    22  LYS22       0.2592
      4  O         61.1330   17.6770   27.3470 O.2    22  LYS22      -0.2718
      5  CB        62.5230   15.8710   29.8010 C.3    22  LYS22       0.0285
      6  CG        62.7230   15.0120   28.5390 C.3    22  LYS22       0.0035
      7  CD        61.6620   13.9130   28.4020 C.3    22  LYS22       0.0206
      8  CE        61.9380   12.7820   29.3880 C.3    22  LYS22       0.1093
      9  NZ        60.7700   11.8550   29.4670 N.3    22  LYS22      -0.1314
     10  N         59.7830   17.1810   29.0900 N.am   23  SER23      -0.1952
     11  CA        58.5680   17.1910   28.2740 C.3    23  SER23       0.1924
     12  C         58.3240   18.5420   27.6110 C.2    23  SER23       0.2314
     13  O         58.0130   18.6240   26.4140 O.2    23  SER23      -0.2863
     14  CB        57.3600   16.8240   29.1410 C.3    23  SER23       0.2116
     15  OG        57.4390   15.4720   29.5390 O.3    23  SER23      -0.2180
     16  N         59.0600   19.6450   23.3480 N.3    27  ARG27      -0.1245
     17  CA        57.9400   20.1840   22.5840 C.3    27  ARG27       0.1563
     18  C         58.2900   21.6050   22.1390 C.2    27  ARG27       0.2260
     19  O         58.0490   21.9820   20.9870 O.2    27  ARG27      -0.2867
     20  CB        56.6900   20.2600   23.4610 C.3    27  ARG27       0.0307
     21  CG        56.0080   18.9200   23.6660 C.3    27  ARG27       0.0489
     22  CD        54.9410   19.1140   24.7230 C.3    27  ARG27       0.2205
     23  NE        54.0910   17.9570   24.9640 N.pl3  27  ARG27      -0.0865
     24  CZ        54.4690   16.8480   25.5950 C.cat  27  ARG27       0.5346
     25  NH1       53.5850   15.8710   25.7750 N.pl3  27  ARG27       0.1354
     26  NH2       55.7290   16.6920   26.0130 N.pl3  27  ARG27       0.1354
     27  N         60.1800   11.1720   23.4370 N.3    97  THR97      -0.1218
     28  CA        59.5840   12.4420   23.0450 C.3    97  THR97       0.1862
     29  C         60.1520   12.9030   21.7200 C.2    97  THR97       0.2287
     30  O         59.4400   13.5170   20.9290 O.2    97  THR97      -0.2866
     31  CB        59.7450   13.5430   24.1230 C.3    97  THR97       0.1770
     32  OG1       61.1180   13.7000   24.4950 O.3    97  THR97      -0.2211
     33  CG2       58.9280   13.1820   25.3510 C.3    97  THR97       0.0375
     34  N         58.7870    9.9220   18.8780 N.3   100  ARG100     -0.1231
     35  CA        57.3830    9.9940   18.5160 C.3   100  ARG100      0.1694
     36  C         57.0250   11.3150   17.8670 C.2   100  ARG100      0.2591
     37  O         56.3380   11.3450   16.8380 O.2   100  ARG100     -0.2718
     38  CB        56.5020    9.7490   19.7580 C.3   100  ARG100      0.0321
     39  CG        56.2820    8.2700   20.1140 C.3   100  ARG100      0.0489
     40  CD        57.5980    7.5990   20.5420 C.3   100  ARG100      0.2205
     41  NE        57.3990    6.2150   20.9950 N.pl3 100  ARG100     -0.0865
     42  CZ        57.1300    5.8380   22.2480 C.cat 100  ARG100      0.5346
     43  NH1       56.9830    4.5430   22.5320 N.pl3 100  ARG100      0.1354
     44  NH2       57.0130    6.7300   23.2300 N.pl3 100  ARG100      0.1354
     45  N         57.4960   12.4220   18.4440 N.am  101  LEU101     -0.1980
     46  CA        57.1370   13.7310   17.8610 C.3   101  LEU101      0.1596
     47  C         57.6900   13.9330   16.4510 C.2   101  LEU101      0.2287
     48  O         56.9880   14.4270   15.5560 O.2   101  LEU101     -0.2864
     49  CB        57.6200   14.8370   18.7850 C.3   101  LEU101      0.0297
     50  CG        56.6450   15.2060   19.9310 C.3   101  LEU101      0.0022
     51  CD1       56.2180   13.9890   20.7760 C.3   101  LEU101      0.0001
     52  CD2       57.3780   16.2230   20.7860 C.3   101  LEU101      0.0001
     53  N         60.7440   -0.3010   21.6620 N.3   124  ARG124     -0.1245
     54  CA        59.6540    0.5130   22.2220 C.3   124  ARG124      0.1563
     55  C         58.6620    0.7490   21.1020 C.2   124  ARG124      0.2260
     56  O         59.0160    1.2410   20.0290 O.2   124  ARG124     -0.2867
     57  CB        60.2150    1.7950   22.8010 C.3   124  ARG124      0.0307
     58  CG        61.0640    1.5030   24.0590 C.3   124  ARG124      0.0489
     59  CD        61.5360    2.7710   24.7280 C.3   124  ARG124      0.2205
     60  NE        60.3980    3.5570   25.1740 N.pl3 124  ARG124     -0.0865
     61  CZ        60.4470    4.8570   25.4610 C.cat 124  ARG124      0.5346
     62  NH1       59.3410    5.4780   25.8610 N.pl3 124  ARG124      0.1354
     63  NH2       61.5900    5.5280   25.3620 N.pl3 124  ARG124      0.1354
     64  N         48.4800    2.7280   24.9070 N.3   168  VAL168     -0.1231
     65  CA        49.8680    2.3970   25.2410 C.3   168  VAL168      0.1692
     66  C         50.7090    3.6500   25.4990 C.2   168  VAL168      0.2593
     67  O         51.5270    3.6780   26.4310 O.2   168  VAL168     -0.2718
     68  CB        50.4980    1.5520   24.1070 C.3   168  VAL168      0.0266
     69  CG1       51.9810    1.3500   24.3420 C.3   168  VAL168      0.0020
     70  CG2       49.8000    0.1950   24.0330 C.3   168  VAL168      0.0020
     71  N         50.5360    4.6800   24.6750 N.am  169  SER169     -0.1938
     72  CA        51.2770    5.9280   24.8950 C.3   169  SER169      0.2055
     73  C         50.4670    7.1320   24.4960 C.2   169  SER169      0.2644
     74  O         49.8220    7.1370   23.4480 O.2   169  SER169     -0.2714
     75  CB        52.5860    5.9760   24.0800 C.3   169  SER169      0.2130
     76  OG        53.3080    7.1910   24.3630 O.3   169  SER169     -0.2179
     77  N         50.5070    8.1590   25.3280 N.am  170  SER170     -0.1935
     78  CA        49.8190    9.3960   24.9780 C.3   170  SER170      0.2055
     79  C         50.6860   10.1470   23.9490 C.2   170  SER170      0.2642
     80  O         50.2190   11.0830   23.2910 O.2   170  SER170     -0.2714
     81  CB        49.6580   10.2900   26.2180 C.3   170  SER170      0.2130
     82  OG        50.9270   10.7380   26.7190 O.3   170  SER170     -0.2179
     83  N         51.9500    9.7510   23.8090 N.am  171  GLN171     -0.1976
     84  CA        52.8140   10.4620   22.8760 C.3   171  GLN171      0.1601
     85  C         52.3850   10.3710   21.4280 C.2   171  GLN171      0.2287
     86  O         52.6970   11.2540   20.6210 O.2   171  GLN171     -0.2864
     87  CB        54.2520    9.9740   23.0050 C.3   171  GLN171      0.0394
     88  CG        54.9000   10.3910   24.3190 C.3   171  GLN171      0.0908
     89  CD        56.3430    9.9540   24.3900 C.2   171  GLN171      0.2608
     90  OE1       56.9280    9.5540   23.3890 O.2   171  GLN171     -0.2717
     91  NE2       56.9360   10.0590   25.5760 N.am  171  GLN171     -0.0878
     92  N         49.8910   13.0840   21.1320 N.3   174  THR174     -0.1218
     93  CA        50.6210   14.3480   21.1780 C.3   174  THR174      0.1862
     94  C         51.2850   14.6630   19.8390 C.2   174  THR174      0.2287
     95  O         51.2000   15.7900   19.3360 O.2   174  THR174     -0.2866
     96  CB        51.7060   14.2980   22.2760 C.3   174  THR174      0.1770
     97  OG1       51.0980   14.6680   23.5140 O.3   174  THR174     -0.2211
     98  CG2       52.8830   15.2340   21.9610 C.3   174  THR174      0.0375
     99  N         48.1200    8.2750   30.4180 N.3   197  SER197     -0.1217
    100  CA        48.9750    9.4500   30.5770 C.3   197  SER197      0.1889
    101  C         48.3180   10.7220   30.0660 C.2   197  SER197      0.2288
    102  O         48.9740   11.6050   29.4980 O.2   197  SER197     -0.2866
    103  CB        50.2920    9.2160   29.8300 C.3   197  SER197      0.2089
    104  OG        51.0320    8.1900   30.4830 O.3   197  SER197     -0.2183
    105  N         49.6520   14.5330   29.9310 N.3   200  TYR200     -0.1241
    106  CA        50.6540   15.0020   28.9790 C.3   200  TYR200      0.1605
    107  C         50.0050   15.6300   27.7620 C.2   200  TYR200      0.2264
    108  O         50.6370   16.4330   27.0690 O.2   200  TYR200     -0.2867
    109  CB        51.6130   13.8740   28.5630 C.3   200  TYR200      0.0534
    110  CG        52.5460   13.4980   29.6850 C.ar  200  TYR200     -0.0201
    111  CD1       52.2280   12.4640   30.5650 C.ar  200  TYR200     -0.0009
    112  CD2       53.7350   14.2020   29.8830 C.ar  200  TYR200     -0.0009
    113  CE1       53.0850   12.1410   31.6270 C.ar  200  TYR200      0.0417
    114  CE2       54.5970   13.8790   30.9340 C.ar  200  TYR200      0.0417
    115  CZ        54.2660   12.8570   31.7910 C.ar  200  TYR200      0.1957
    116  OH        55.1400   12.5290   32.8040 O.3   200  TYR200     -0.2866
    117  N         52.6280    8.3540   35.7500 N.3   312  PRO312     -0.2102
    118  CA        53.4470    7.1520   35.6040 C.3   312  PRO312      0.1504
    119  C         54.9320    7.2390   35.9290 C.2   312  PRO312      0.2575
    120  O         55.5170    6.2770   36.4610 O.2   312  PRO312     -0.2718
    121  CB        53.1890    6.7240   34.1540 C.3   312  PRO312      0.0282
    122  CG        52.9800    8.0350   33.4510 C.3   312  PRO312      0.0208
    123  CD        52.0700    8.7850   34.4510 C.3   312  PRO312      0.0893
    124  N         55.5320    8.3780   35.6210 N.am  313  ASP313     -0.1974
    125  CA        56.9660    8.5460   35.8510 C.3   313  ASP313      0.1708
    126  C         57.2550    8.8230   37.3220 C.2   313  ASP313      0.2293
    127  O         58.0420    8.1160   37.9530 O.2   313  ASP313     -0.2864
    128  CB        57.5170    9.6870   34.9940 C.3   313  ASP313      0.1436
    129  CG        57.4450    9.3930   33.4990 C.2   313  ASP313      0.3671
    130  OD1       57.8060   10.2960   32.7240 O.co2 313  ASP313     -0.2456
    131  OD2       57.0290    8.2840   33.1070 O.co2 313  ASP313     -0.2456
    132  N         52.1070    0.6700   31.1580 N.3   336  ASN336     -0.1240
    133  CA        53.1470    1.1250   30.2430 C.3   336  ASN336      0.1653
    134  C         54.5350    1.3420   30.8160 C.2   336  ASN336      0.2266
    135  O         55.4760    1.6830   30.0910 O.2   336  ASN336     -0.2867
    136  CB        52.6610    2.2720   29.3250 C.3   336  ASN336      0.1155
    137  CG        52.6310    3.6260   29.9800 C.2   336  ASN336      0.2627
    138  OD1       53.0970    3.8300   31.1110 O.2   336  ASN336     -0.2716
    139  ND2       52.0850    4.5950   29.2410 N.am  336  ASN336     -0.0877
    140  N         56.9300   -0.6500   28.7590 N.3   339  VAL339     -0.1231
    141  CA        57.4090   -0.2880   27.4340 C.3   339  VAL339      0.1692
    142  C         58.2040    1.0040   27.3760 C.2   339  VAL339      0.2592
    143  O         58.3210    1.6280   26.3110 O.2   339  VAL339     -0.2718
    144  CB        56.2350   -0.2300   26.4390 C.3   339  VAL339      0.0266
    145  CG1       55.5600   -1.6150   26.3510 C.3   339  VAL339      0.0020
    146  CG2       55.2050    0.8290   26.8670 C.3   339  VAL339      0.0020
    147  N         58.7860    1.3720   28.5170 N.am  340  LYS340     -0.1966
    148  CA        59.5630    2.6050   28.5850 C.3   340  LYS340      0.1728
    149  C         61.0670    2.3430   28.5730 C.2   340  LYS340      0.2616
    150  O         61.4860    1.4200   27.8730 O.2   340  LYS340     -0.2715
    151  CB        59.0650    3.4480   29.7630 C.3   340  LYS340      0.0311
    152  CG        57.7500    4.1610   29.3330 C.3   340  LYS340      0.0038
    153  CD        57.0150    4.8440   30.4440 C.3   340  LYS340      0.0206
    154  CE        55.8290    5.5960   29.8320 C.3   340  LYS340      0.1093
    155  NZ        54.9370    6.1060   30.8960 N.3   340  LYS340     -0.1314
    156  N         61.8800    3.0960   29.3200 N.am  341  GLU341     -0.1977
    157  CA        63.3370    2.9030   29.2440 C.3   341  GLU341      0.1602
    158  C         63.7900    1.4760   29.4280 C.2   341  GLU341      0.2287
    159  O         64.7990    1.0600   28.8490 O.2   341  GLU341     -0.2864
    160  CB        64.0550    3.8340   30.2140 C.3   341  GLU341      0.0415
    161  CG        64.0980    5.3140   29.7150 C.3   341  GLU341      0.1163
    162  CD        62.8200    6.1380   29.9760 C.2   341  GLU341      0.3649
    163  OE1       61.7240    5.5650   30.1600 O.co2 341  GLU341     -0.2457
    164  OE2       62.9290    7.3830   29.9690 O.co2 341  GLU341     -0.2457
@<TRIPOS>BOND
     1    48    47    2
     2    47    46    1
     3    37    36    2
     4    46    45    1
     5    46    49    1
     6    36    45   am
     7    36    35    1
     8    35    34    1
     9    35    38    1
    10    49    50    1
    11    95    94    2
    12    38    39    1
    13    94    93    1
    14    50    51    1
    15    50    52    1
    16    56    55    2
    17    39    40    1
    18    40    41    1
    19    86    85    2
    20    30    29    2
    21    19    18    2
    22    41    42    2
    23    55    54    1
    24    92    93    1
    25    93    96    1
    26    85    84    1
    27    53    54    1
    28    29    28    1
    29    98    96    1
    30    18    17    1
    31    54    57    1
    32    42    43    1
    33    42    44    1
    34    96    97    1
    35    17    16    1
    36    17    20    1
    37    57    58    1
    38    84    87    1
    39    84    83    1
    40    87    88    1
    41    28    27    1
    42    28    31    1
    43    80    79    2
    44    90    89    2
    45    74    73    2
    46    20    21    1
    47    21    22    1
    48    83    79   am
    49    79    78    1
    50    70    68    1
    51    58    59    1
    52    75    76    1
    53    75    72    1
    54    68    69    1
    55    68    65    1
    56    31    32    1
    57    31    33    1
    58    88    89    1
    59    89    91   am
    60    73    72    1
    61    73    77   am
    62    71    72    1
    63    71    66   am
    64    22    23    1
    65    59    60    1
    66    64    65    1
    67    23    24    2
    68    78    77    1
    69    78    81    1
    70    60    61    2
    71    65    66    1
    72    63    61    1
    73    61    62    1
    74    66    67    2
    75    24    25    1
    76    24    26    1
    77    81    82    1
    78   143   142    2
    79   145   144    1
    80    13    12    2
    81   144   146    1
    82   144   141    1
    83   108   107    2
    84     4     3    2
    85   142   141    1
    86   142   147   am
    87   141   140    1
    88    12    11    1
    89   107   106    1
    90   150   149    2
    91    11    10    1
    92    11    14    1
    93     7     6    1
    94     7     8    1
    95   147   148    1
    96     6     5    1
    97     3    10   am
    98     3     2    1
    99   109   106    1
   100   109   110    1
   101   149   148    1
   102   149   156   am
   103   148   151    1
   104   159   158    2
   105   106   105    1
   106    14    15    1
   107   139   137   am
   108   157   156    1
   109   157   158    1
   110   157   160    1
   111   136   137    1
   112   136   133    1
   113   152   151    1
   114   152   153    1
   115     8     9    1
   116     2     5    1
   117     2     1    1
   118   102   101    2
   119   110   112   ar
   120   110   111   ar
   121   161   162    1
   122   161   160    1
   123   103   104    1
   124   103   100    1
   125   154   153    1
   126   154   155    1
   127   112   114   ar
   128   164   162   ar
   129   162   163   ar
   130   137   138    2
   131   101   100    1
   132   135   134    2
   133   133   134    1
   134   133   132    1
   135    99   100    1
   136   111   113   ar
   137   114   115   ar
   138   113   115   ar
   139   115   116    1
   140   130   129   ar
   141   131   129   ar
   142   122   121    1
   143   122   123    1
   144   129   128    1
   145   121   118    1
   146   123   117    1
   147   128   125    1
   148   118   117    1
   149   118   119    1
   150   124   125    1
   151   124   119   am
   152   125   126    1
   153   119   120    2
   154   126   127    2
