@<TRIPOS>MOLECULE
tmp/2qfvA00.pdb
 194 187 0 0 0
SMALL
GASTEIGER

@<TRIPOS>ATOM
      1  N        -16.8970  -51.7040  -35.4740 N.3    72  LYS72      -0.1245
      2  CA       -18.2370  -52.2670  -35.4130 C.3    72  LYS72       0.1561
      3  C        -18.4250  -53.7860  -35.3130 C.2    72  LYS72       0.2260
      4  O        -17.7000  -54.5780  -35.9190 O.2    72  LYS72      -0.2867
      5  CB       -19.0180  -51.7450  -36.6210 C.3    72  LYS72       0.0271
      6  CG       -20.4640  -52.1600  -36.6780 C.3    72  LYS72       0.0035
      7  CD       -21.1280  -51.5820  -37.9100 C.3    72  LYS72       0.0206
      8  CE       -22.5470  -52.0990  -38.0630 C.3    72  LYS72       0.1093
      9  NZ       -22.6190  -53.5890  -38.1520 N.3    72  LYS72      -0.1314
     10  N        -21.0550  -57.0840  -35.7690 N.3    74  ALA74      -0.1231
     11  CA       -22.1190  -57.4360  -36.7050 C.3    74  ALA74       0.1694
     12  C        -23.4940  -57.0580  -36.1390 C.2    74  ALA74       0.2593
     13  O        -23.7240  -57.1340  -34.9330 O.2    74  ALA74      -0.2718
     14  CB       -22.0740  -58.9210  -37.0030 C.3    74  ALA74       0.0304
     15  N        -24.3960  -56.6380  -37.0160 N.am   75  THR75      -0.1939
     16  CA       -25.7500  -56.2620  -36.6200 C.3    75  THR75       0.2028
     17  C        -26.7810  -56.9890  -37.4740 C.2    75  THR75       0.2642
     18  O        -26.4850  -57.4410  -38.5790 O.2    75  THR75      -0.2714
     19  CB       -25.9900  -54.7480  -36.7810 C.3    75  THR75       0.1808
     20  OG1      -25.3840  -54.2960  -38.0020 O.3    75  THR75      -0.2208
     21  CG2      -25.4210  -53.9900  -35.6010 C.3    75  THR75       0.0379
     22  N        -27.9930  -57.1060  -36.9450 N.am   76  ILE76      -0.1963
     23  CA       -29.0840  -57.7590  -37.6550 C.3    76  ILE76       0.1727
     24  C        -29.7300  -56.7840  -38.6360 C.2    76  ILE76       0.2616
     25  O        -30.0770  -55.6660  -38.2600 O.2    76  ILE76      -0.2715
     26  CB       -30.2110  -58.2080  -36.6940 C.3    76  ILE76       0.0290
     27  CG1      -29.7180  -59.2960  -35.7460 C.3    76  ILE76       0.0022
     28  CG2      -31.4050  -58.6960  -37.5000 C.3    76  ILE76       0.0023
     29  CD1      -30.6990  -59.5850  -34.6300 C.3    76  ILE76       0.0001
     30  N        -29.8880  -57.2100  -39.8840 N.am   77  THR77      -0.1951
     31  CA       -30.5540  -56.3910  -40.8950 C.3    77  THR77       0.1897
     32  C        -31.9800  -56.9170  -40.9130 C.2    77  THR77       0.2313
     33  O        -32.2710  -57.9100  -41.5750 O.2    77  THR77      -0.2863
     34  CB       -29.9490  -56.5820  -42.2960 C.3    77  THR77       0.1794
     35  OG1      -28.6660  -55.9530  -42.3570 O.3    77  THR77      -0.2208
     36  CG2      -30.8610  -55.9810  -43.3510 C.3    77  THR77       0.0378
     37  N        -35.7890  -58.0050  -41.4290 N.3    79  ASP79      -0.1239
     38  CA       -36.5460  -58.4360  -42.5900 C.3    79  ASP79       0.1674
     39  C        -37.9590  -58.6720  -42.0790 C.2    79  ASP79       0.2266
     40  O        -38.3800  -58.0450  -41.1050 O.2    79  ASP79      -0.2867
     41  CB       -35.9610  -59.7260  -43.1650 C.3    79  ASP79       0.1410
     42  CG       -35.7370  -60.7840  -42.1070 C.2    79  ASP79       0.3668
     43  OD1      -36.7000  -61.1310  -41.3940 O.co2  79  ASP79      -0.2456
     44  OD2      -34.5940  -61.2710  -41.9890 O.co2  79  ASP79      -0.2456
     45  N        -37.9240  -60.8160  -38.7680 N.3    82  ARG82      -0.1245
     46  CA       -37.2510  -60.0380  -37.7270 C.3    82  ARG82       0.1563
     47  C        -38.2110  -59.0580  -37.0560 C.2    82  ARG82       0.2260
     48  O        -38.1870  -58.8840  -35.8370 O.2    82  ARG82      -0.2867
     49  CB       -36.0610  -59.2640  -38.3140 C.3    82  ARG82       0.0307
     50  CG       -34.8610  -60.1210  -38.7060 C.3    82  ARG82       0.0489
     51  CD       -34.2680  -60.8430  -37.4990 C.3    82  ARG82       0.2205
     52  NE       -32.9670  -61.4440  -37.7930 N.pl3  82  ARG82      -0.0865
     53  CZ       -32.2500  -62.1420  -36.9160 C.cat  82  ARG82       0.5346
     54  NH1      -32.7100  -62.3370  -35.6870 N.pl3  82  ARG82       0.1354
     55  NH2      -31.0690  -62.6380  -37.2640 N.pl3  82  ARG82       0.1354
     56  N        -25.3870  -51.1360  -41.8970 N.3    96  ASN96      -0.1240
     57  CA       -24.1550  -51.1190  -42.6810 C.3    96  ASN96       0.1653
     58  C        -24.2740  -50.1440  -43.8620 C.2    96  ASN96       0.2266
     59  O        -23.3410  -49.3800  -44.1630 O.2    96  ASN96      -0.2867
     60  CB       -23.8520  -52.5210  -43.2130 C.3    96  ASN96       0.1155
     61  CG       -23.8280  -53.5740  -42.1180 C.2    96  ASN96       0.2627
     62  OD1      -22.9300  -53.6040  -41.2760 O.2    96  ASN96      -0.2716
     63  ND2      -24.8280  -54.4420  -42.1230 N.am   96  ASN96      -0.0877
     64  N        -13.4170  -70.2960  -44.1920 N.3   288  SER288     -0.1202
     65  CA       -14.3850  -69.7860  -43.2430 C.3   288  SER288      0.2020
     66  C        -14.5910  -68.2830  -43.2530 C.2   288  SER288      0.2619
     67  O        -13.6680  -67.5010  -43.4840 O.2   288  SER288     -0.2717
     68  CB       -13.9950  -70.2140  -41.8350 C.3   288  SER288      0.2103
     69  OG       -14.9480  -69.7460  -40.9030 O.3   288  SER288     -0.2182
     70  N        -15.8280  -67.8870  -42.9910 N.am  289  LEU289     -0.1965
     71  CA       -16.1820  -66.4790  -42.9140 C.3   289  LEU289      0.1728
     72  C        -15.5860  -65.9230  -41.6220 C.2   289  LEU289      0.2616
     73  O        -15.4920  -64.7060  -41.4330 O.2   289  LEU289     -0.2715
     74  CB       -17.6960  -66.3340  -42.9060 C.3   289  LEU289      0.0311
     75  CG       -18.3000  -66.5630  -44.2850 C.3   289  LEU289      0.0022
     76  CD1      -19.8250  -66.6390  -44.1990 C.3   289  LEU289      0.0001
     77  CD2      -17.8550  -65.4260  -45.1890 C.3   289  LEU289      0.0001
     78  N        -15.1710  -66.8370  -40.7440 N.am  290  GLY290     -0.1955
     79  CA       -14.5680  -66.4480  -39.4820 C.3   290  GLY290      0.1869
     80  C        -13.2200  -65.7860  -39.7110 C.2   290  GLY290      0.2309
     81  O        -12.6340  -65.2250  -38.7900 O.2   290  GLY290     -0.2863
     82  N        -14.8260  -53.6710  -39.2210 N.3   307  GLU307     -0.1231
     83  CA       -15.7740  -54.7080  -38.7930 C.3   307  GLU307      0.1699
     84  C        -15.5870  -56.0380  -39.5110 C.2   307  GLU307      0.2592
     85  O        -15.1110  -56.0850  -40.6510 O.2   307  GLU307     -0.2718
     86  CB       -17.2330  -54.2500  -38.9700 C.3   307  GLU307      0.0402
     87  CG       -17.7790  -54.2750  -40.3870 C.3   307  GLU307      0.1161
     88  CD       -19.2730  -53.8920  -40.4580 C.2   307  GLU307      0.3649
     89  OE1      -20.1310  -54.6440  -39.9270 O.co2 307  GLU307     -0.2457
     90  OE2      -19.5930  -52.8300  -41.0410 O.co2 307  GLU307     -0.2457
     91  N        -15.9550  -57.1180  -38.8240 N.am  308  ALA308     -0.1966
     92  CA       -15.8600  -58.4640  -39.3830 C.3   308  ALA308      0.1728
     93  C        -16.8000  -58.5140  -40.5770 C.2   308  ALA308      0.2616
     94  O        -17.8310  -57.8510  -40.5820 O.2   308  ALA308     -0.2715
     95  CB       -16.2660  -59.4930  -38.3440 C.3   308  ALA308      0.0334
     96  N        -16.4510  -59.2960  -41.5880 N.am  309  ALA309     -0.1963
     97  CA       -17.2750  -59.3720  -42.7880 C.3   309  ALA309      0.1728
     98  C        -18.4930  -60.2870  -42.6690 C.2   309  ALA309      0.2616
     99  O        -19.4560  -60.1510  -43.4310 O.2   309  ALA309     -0.2715
    100  CB       -16.4170  -59.7890  -43.9660 C.3   309  ALA309      0.0334
    101  N        -18.4610  -61.2100  -41.7150 N.am  310  HIS310     -0.1959
    102  CA       -19.5770  -62.1250  -41.5100 C.3   310  HIS310      0.1787
    103  C        -20.7050  -61.4700  -40.7020 C.2   310  HIS310      0.2621
    104  O        -20.5860  -60.3240  -40.2690 O.2   310  HIS310     -0.2715
    105  CB       -19.0820  -63.3970  -40.8170 C.3   310  HIS310      0.0785
    106  CG       -18.4170  -63.1510  -39.4970 C.ar  310  HIS310      0.0821
    107  ND1      -19.1030  -62.6990  -38.3930 N.ar  310  HIS310     -0.2267
    108  CD2      -17.1360  -63.3320  -39.0950 C.ar  310  HIS310      0.1154
    109  CE1      -18.2770  -62.6150  -37.3660 C.ar  310  HIS310      0.1986
    110  NE2      -17.0770  -62.9940  -37.7660 N.ar  310  HIS310     -0.2212
    111  N        -21.8040  -62.1970  -40.5190 N.am  311  GLY311     -0.1940
    112  CA       -22.9360  -61.6620  -39.7850 C.3   311  GLY311      0.2014
    113  C        -22.9220  -61.9450  -38.2950 C.2   311  GLY311      0.2640
    114  O        -21.8720  -62.2170  -37.7150 O.2   311  GLY311     -0.2714
    115  N        -24.0970  -61.8870  -37.6730 N.am  312  THR312     -0.1936
    116  CA       -24.2320  -62.1170  -36.2350 C.3   312  THR312      0.2028
    117  C        -24.1050  -63.5780  -35.8220 C.2   312  THR312      0.2642
    118  O        -24.0790  -63.8930  -34.6320 O.2   312  THR312     -0.2714
    119  CB       -25.5800  -61.5880  -35.7190 C.3   312  THR312      0.1808
    120  OG1      -26.6390  -62.2310  -36.4350 O.3   312  THR312     -0.2208
    121  CG2      -25.6820  -60.0650  -35.9250 C.3   312  THR312      0.0379
    122  N        -24.0100  -64.4640  -36.8050 N.am  313  VAL313     -0.1963
    123  CA       -23.8880  -65.8960  -36.5530 C.3   313  VAL313      0.1727
    124  C        -25.1040  -66.3600  -35.7490 C.2   313  VAL313      0.2617
    125  O        -24.9850  -67.0050  -34.7080 O.2   313  VAL313     -0.2715
    126  CB       -22.5820  -66.2180  -35.7980 C.3   313  VAL313      0.0290
    127  CG1      -22.1320  -67.6460  -36.1270 C.3   313  VAL313      0.0023
    128  CG2      -21.4900  -65.2250  -36.1950 C.3   313  VAL313      0.0023
    129  N        -26.2770  -66.0070  -36.2650 N.am  314  THR314     -0.1937
    130  CA       -27.5600  -66.3350  -35.6640 C.3   314  THR314      0.2028
    131  C        -27.7310  -67.8070  -35.2950 C.2   314  THR314      0.2642
    132  O        -28.2500  -68.1170  -34.2330 O.2   314  THR314     -0.2714
    133  CB       -28.7050  -65.9290  -36.6020 C.3   314  THR314      0.1808
    134  OG1      -28.5690  -64.5430  -36.9320 O.3   314  THR314     -0.2208
    135  CG2      -30.0520  -66.1590  -35.9340 C.3   314  THR314      0.0379
    136  N        -27.3040  -68.7330  -36.1100 N.am  315  ARG315     -0.1963
    137  CA       -27.4290  -70.1600  -35.8180 C.3   315  ARG315      0.1729
    138  C        -26.6570  -70.5570  -34.5620 C.2   315  ARG315      0.2616
    139  O        -27.0920  -71.4350  -33.8270 O.2   315  ARG315     -0.2715
    140  CB       -26.9430  -71.0000  -37.0120 C.3   315  ARG315      0.0348
    141  CG       -27.7220  -70.7330  -38.3080 C.3   315  ARG315      0.0492
    142  CD       -27.2100  -71.4900  -39.5060 C.3   315  ARG315      0.2205
    143  NE       -27.9520  -71.1260  -40.7050 N.pl3 315  ARG315     -0.0865
    144  CZ       -27.8770  -69.9200  -41.2660 C.cat 315  ARG315      0.5346
    145  NH1      -27.0890  -68.9740  -40.7350 N.pl3 315  ARG315      0.1354
    146  NH2      -28.5910  -69.6600  -42.3580 N.pl3 315  ARG315      0.1354
    147  N        -25.5380  -69.9100  -34.3570 N.am  316  HIS316     -0.1973
    148  CA       -24.7890  -70.2470  -33.1570 C.3   316  HIS316      0.1656
    149  C        -25.4190  -69.5760  -31.9510 C.2   316  HIS316      0.2291
    150  O        -25.3180  -70.0750  -30.8270 O.2   316  HIS316     -0.2864
    151  CB       -23.3230  -69.8240  -33.2930 C.3   316  HIS316      0.0771
    152  CG       -22.5760  -70.5770  -34.3530 C.ar  316  HIS316      0.0820
    153  ND1      -21.2140  -70.4620  -34.5300 N.ar  316  HIS316     -0.2267
    154  CD2      -23.0070  -71.4360  -35.3080 C.ar  316  HIS316      0.1154
    155  CE1      -20.8390  -71.2150  -35.5490 C.ar  316  HIS316      0.1986
    156  NE2      -21.9080  -71.8170  -36.0390 N.ar  316  HIS316     -0.2212
    157  N        -19.0330  -73.2580  -31.1740 N.3   327  SER327     -0.1202
    158  CA       -17.6490  -73.1200  -31.5900 C.3   327  SER327      0.2020
    159  C        -17.6330  -72.0000  -32.6050 C.2   327  SER327      0.2619
    160  O        -17.5140  -72.2410  -33.8040 O.2   327  SER327     -0.2717
    161  CB       -17.1350  -74.4050  -32.2360 C.3   327  SER327      0.2103
    162  OG       -15.7520  -74.2790  -32.5160 O.3   327  SER327     -0.2182
    163  N        -17.7670  -70.7730  -32.1200 N.am  328  THR328     -0.1938
    164  CA       -17.7880  -69.6130  -32.9970 C.3   328  THR328      0.2028
    165  C        -16.3930  -68.9910  -33.1040 C.2   328  THR328      0.2642
    166  O        -15.7110  -68.8020  -32.0950 O.2   328  THR328     -0.2714
    167  CB       -18.7860  -68.5580  -32.4720 C.3   328  THR328      0.1808
    168  OG1      -20.0400  -69.1930  -32.1780 O.3   328  THR328     -0.2208
    169  CG2      -19.0130  -67.4760  -33.5080 C.3   328  THR328      0.0379
    170  N        -15.9720  -68.6850  -34.3300 N.am  329  ASN329     -0.1971
    171  CA       -14.6590  -68.0900  -34.5500 C.3   329  ASN329      0.1688
    172  C        -14.6570  -66.5970  -34.2090 C.2   329  ASN329      0.2292
    173  O        -15.4510  -65.8260  -34.7630 O.2   329  ASN329     -0.2864
    174  CB       -14.2220  -68.2760  -36.0010 C.3   329  ASN329      0.1181
    175  CG       -12.7280  -68.1040  -36.1710 C.2   329  ASN329      0.2629
    176  OD1      -12.0720  -67.4860  -35.3360 O.2   329  ASN329     -0.2716
    177  ND2      -12.1820  -68.6420  -37.2550 N.am  329  ASN329     -0.0877
    178  N        -14.4020  -75.0490  -34.5500 N.3   376  LYS376     -0.1231
    179  CA       -14.8580  -76.0160  -35.5400 C.3   376  LYS376      0.1693
    180  C        -14.7040  -75.6060  -37.0070 C.2   376  LYS376      0.2592
    181  O        -14.2050  -76.3860  -37.8140 O.2   376  LYS376     -0.2718
    182  CB       -16.3240  -76.3900  -35.2660 C.3   376  LYS376      0.0285
    183  CG       -16.9300  -77.3150  -36.3200 C.3   376  LYS376      0.0035
    184  CD       -18.4450  -77.1350  -36.4370 C.3   376  LYS376      0.0206
    185  CE       -19.1900  -77.7630  -35.2730 C.3   376  LYS376      0.1093
    186  NZ       -19.2880  -79.2440  -35.4030 N.3   376  LYS376     -0.1314
    187  N        -15.1310  -74.3970  -37.3590 N.am  377  ASP377     -0.1974
    188  CA       -15.0390  -73.9260  -38.7470 C.3   377  ASP377      0.1709
    189  C        -13.6330  -74.0530  -39.3170 C.2   377  ASP377      0.2293
    190  O        -13.4500  -74.3530  -40.5020 O.2   377  ASP377     -0.2864
    191  CB       -15.5030  -72.4710  -38.8580 C.3   377  ASP377      0.1436
    192  CG       -14.6240  -71.5040  -38.0600 C.2   377  ASP377      0.3671
    193  OD1      -14.4690  -71.7050  -36.8310 O.co2 377  ASP377     -0.2456
    194  OD2      -14.0960  -70.5390  -38.6650 O.co2 377  ASP377     -0.2456
@<TRIPOS>BOND
     1    77    75    1
     2    75    76    1
     3    75    74    1
     4    64    65    1
     5    59    58    2
     6   100    97    1
     7    58    57    1
     8    67    66    2
     9    99    98    2
    10    36    34    1
    11    66    65    1
    12    66    70   am
    13    65    68    1
    14    60    57    1
    15    60    61    1
    16    41    38    1
    17    41    42    1
    18    70    71    1
    19    71    74    1
    20    71    72    1
    21    97    98    1
    22    97    96    1
    23    57    56    1
    24    98   101   am
    25    38    39    1
    26    38    37    1
    27   146   144    1
    28    35    34    1
    29    34    31    1
    30    63    61   am
    31    61    62    2
    32    42    44   ar
    33    42    43   ar
    34    39    40    2
    35    68    69    1
    36   101   102    1
    37    72    73    2
    38    72    78   am
    39    96    93   am
    40    33    32    2
    41   102   105    1
    42   102   103    1
    43   144   145    1
    44   144   143    2
    45    90    88   ar
    46    32    31    1
    47    31    30    1
    48   105   106    1
    49    78    79    1
    50   143   142    1
    51   103   111   am
    52   103   104    2
    53    85    84    2
    54    94    93    2
    55    93    92    1
    56   111   112    1
    57   190   189    2
    58    88    87    1
    59    88    89   ar
    60    87    86    1
    61    30    24   am
    62   112   113    1
    63    80    79    1
    64    80    81    2
    65    84    91   am
    66    84    83    1
    67   142   141    1
    68   106   108   ar
    69   106   107   ar
    70    92    91    1
    71    92    95    1
    72   189   188    1
    73    82    83    1
    74   108   110   ar
    75    86    83    1
    76   191   188    1
    77   191   192    1
    78    45    46    1
    79   188   187    1
    80    50    49    1
    81    50    51    1
    82   194   192   ar
    83    24    25    2
    84    24    23    1
    85    18    17    2
    86   107   109   ar
    87    49    46    1
    88   141   140    1
    89   113   114    2
    90   113   115   am
    91     9     8    1
    92     8     7    1
    93   192   193   ar
    94    20    19    1
    95     7     6    1
    96   181   180    2
    97    52    51    1
    98    52    53    2
    99   110   109   ar
   100    46    47    1
   101   115   116    1
   102    23    22    1
   103    23    26    1
   104    28    26    1
   105    17    22   am
   106    17    16    1
   107   187   180   am
   108    55    53    1
   109   177   175   am
   110    47    48    2
   111    15    16    1
   112    15    12   am
   113   140   137    1
   114   180   179    1
   115    14    11    1
   116   134   133    1
   117    53    54    1
   118   122   123    1
   119   122   117   am
   120    19    16    1
   121    19    21    1
   122    11    12    1
   123    11    10    1
   124    26    27    1
   125     6     5    1
   126     5     2    1
   127   133   135    1
   128   133   130    1
   129   123   126    1
   130   123   124    1
   131   184   183    1
   132   184   185    1
   133   120   119    1
   134   183   182    1
   135   129   124   am
   136   129   130    1
   137   116   117    1
   138   116   119    1
   139   128   126    1
   140   175   174    1
   141   175   176    2
   142    12    13    2
   143   127   126    1
   144   136   137    1
   145   136   131   am
   146   156   155   ar
   147   156   154   ar
   148   174   171    1
   149   121   119    1
   150     4     3    2
   151   117   118    2
   152   137   138    1
   153   124   125    2
   154    27    29    1
   155   130   131    1
   156   155   153   ar
   157   179   182    1
   158   179   178    1
   159     1     2    1
   160     2     3    1
   161   186   185    1
   162   154   152   ar
   163   131   132    2
   164   173   172    2
   165   138   147   am
   166   138   139    2
   167   171   170    1
   168   171   172    1
   169   153   152   ar
   170   147   148    1
   171   152   151    1
   172   170   165   am
   173   160   159    2
   174   169   167    1
   175   151   148    1
   176   148   149    1
   177   165   164    1
   178   165   166    2
   179   164   167    1
   180   164   163    1
   181   159   163   am
   182   159   158    1
   183   162   161    1
   184   167   168    1
   185   161   158    1
   186   149   150    2
   187   158   157    1
