@<TRIPOS>MOLECULE
tmp/2qfwD00.pdb
 102 92 0 0 0
SMALL
GASTEIGER

@<TRIPOS>ATOM
      1  N        131.6470  -39.5320  175.2430 N.3    76  THR76      -0.1218
      2  CA       132.8210  -38.7130  174.9640 C.3    76  THR76       0.1862
      3  C        132.4810  -37.5470  174.0460 C.2    76  THR76       0.2287
      4  O        131.3770  -37.4710  173.4970 O.2    76  THR76      -0.2866
      5  CB       133.9390  -39.5580  174.3210 C.3    76  THR76       0.1770
      6  OG1      133.3760  -40.4260  173.3280 O.3    76  THR76      -0.2211
      7  CG2      134.5680  -40.4970  175.3450 C.3    76  THR76       0.0375
      8  N        133.6730  -35.3960  170.6110 N.3    78  THR78      -0.1218
      9  CA       134.4640  -35.3130  169.3910 C.3    78  THR78       0.1862
     10  C        134.7210  -33.8340  169.1020 C.2    78  THR78       0.2287
     11  O        133.8050  -33.1090  168.7040 O.2    78  THR78      -0.2866
     12  CB       133.7300  -35.9770  168.2170 C.3    78  THR78       0.1770
     13  OG1      133.4390  -37.3400  168.5430 O.3    78  THR78      -0.2211
     14  CG2      134.6300  -36.0640  166.9960 C.3    78  THR78       0.0375
     15  N        136.2830  -39.3590  166.1610 N.3    95  SER95      -0.1217
     16  CA       135.3210  -39.8590  167.1380 C.3    95  SER95       0.1889
     17  C        135.7800  -41.2070  167.6950 C.2    95  SER95       0.2288
     18  O        136.0440  -42.1360  166.9290 O.2    95  SER95      -0.2866
     19  CB       133.9360  -39.9990  166.5010 C.3    95  SER95       0.2089
     20  OG       133.0860  -40.7990  167.3050 O.3    95  SER95      -0.2183
     21  N        134.0140  -43.4160  169.3190 N.3    97  ASN97      -0.1225
     22  CA       132.9870  -44.3910  168.9650 C.3    97  ASN97       0.1785
     23  C        133.1880  -44.9750  167.5700 C.2    97  ASN97       0.2597
     24  O        133.0700  -46.1870  167.3780 O.2    97  ASN97      -0.2718
     25  CB       131.5960  -43.7720  169.1020 C.3    97  ASN97       0.1169
     26  CG       131.3390  -43.2320  170.4960 C.2    97  ASN97       0.2627
     27  OD1      131.1500  -43.9960  171.4440 O.2    97  ASN97      -0.2716
     28  ND2      131.3390  -41.9090  170.6290 N.am   97  ASN97      -0.0877
     29  N        133.5050  -44.1090  166.6070 N.am   98  GLY98      -0.1957
     30  CA       133.8160  -44.5430  165.2560 C.3    98  GLY98       0.1869
     31  C        135.0120  -45.4780  165.2330 C.2    98  GLY98       0.2309
     32  O        134.9640  -46.5470  164.6230 O.2    98  GLY98      -0.2863
     33  N        134.1790  -48.7910  167.0660 N.3   101  ARG101     -0.1245
     34  CA       133.3250  -49.5720  166.1750 C.3   101  ARG101      0.1563
     35  C        134.1330  -50.1560  165.0190 C.2   101  ARG101      0.2260
     36  O        133.9660  -51.3260  164.6740 O.2   101  ARG101     -0.2867
     37  CB       132.1690  -48.7250  165.6430 C.3   101  ARG101      0.0307
     38  CG       130.9990  -48.6110  166.6060 C.3   101  ARG101      0.0489
     39  CD       130.0840  -47.4340  166.3170 C.3   101  ARG101      0.2205
     40  NE       129.3930  -46.9780  167.5230 N.pl3 101  ARG101     -0.0865
     41  CZ       128.6070  -45.9090  167.5830 C.cat 101  ARG101      0.5346
     42  NH1      128.3990  -45.1660  166.5030 N.pl3 101  ARG101      0.1354
     43  NH2      128.0250  -45.5790  168.7290 N.pl3 101  ARG101      0.1354
     44  N        120.2300  -50.6190  169.2850 N.3   110  ARG110     -0.1245
     45  CA       119.6520  -49.4230  169.8850 C.3   110  ARG110      0.1563
     46  C        118.1750  -49.6290  170.1990 C.2   110  ARG110      0.2260
     47  O        117.3500  -49.7980  169.2980 O.2   110  ARG110     -0.2867
     48  CB       119.8700  -48.2100  168.9740 C.3   110  ARG110      0.0307
     49  CG       121.2300  -48.2200  168.2770 C.3   110  ARG110      0.0489
     50  CD       121.8760  -46.8620  168.1060 C.3   110  ARG110      0.2205
     51  NE       121.8770  -46.0780  169.3360 N.pl3 110  ARG110     -0.0865
     52  CZ       122.6820  -45.0490  169.5620 C.cat 110  ARG110      0.5346
     53  NH1      123.5600  -44.6720  168.6420 N.pl3 110  ARG110      0.1354
     54  NH2      122.6100  -44.3940  170.7100 N.pl3 110  ARG110      0.1354
     55  N        122.0420  -51.5240  163.9910 N.3   133  ARG133     -0.1245
     56  CA       122.8380  -50.6720  163.1180 C.3   133  ARG133      0.1563
     57  C        124.1920  -51.3000  162.8230 C.2   133  ARG133      0.2260
     58  O        124.9260  -51.6700  163.7420 O.2   133  ARG133     -0.2867
     59  CB       123.0190  -49.2950  163.7570 C.3   133  ARG133      0.0307
     60  CG       124.0250  -48.3930  163.0600 C.3   133  ARG133      0.0489
     61  CD       124.4390  -47.2190  163.9090 C.3   133  ARG133      0.2205
     62  NE       125.5650  -46.4960  163.3310 N.pl3 133  ARG133     -0.0865
     63  CZ       126.1070  -45.4100  163.8680 C.cat 133  ARG133      0.5346
     64  NH1      125.6260  -44.9150  165.0020 N.pl3 133  ARG133      0.1354
     65  NH2      127.1280  -44.8130  163.2680 N.pl3 133  ARG133      0.1354
     66  N        131.3750  -43.6990  157.2190 N.3   140  TYR140     -0.1241
     67  CA       132.1700  -43.4740  158.4280 C.3   140  TYR140      0.1605
     68  C        133.6570  -43.7910  158.2550 C.2   140  TYR140      0.2264
     69  O        134.4850  -43.4050  159.0850 O.2   140  TYR140     -0.2867
     70  CB       131.5560  -44.2260  159.6130 C.3   140  TYR140      0.0534
     71  CG       130.1570  -43.7400  159.9130 C.ar  140  TYR140     -0.0201
     72  CD1      129.0590  -44.2580  159.2280 C.ar  140  TYR140     -0.0009
     73  CD2      129.9350  -42.7280  160.8470 C.ar  140  TYR140     -0.0009
     74  CE1      127.7730  -43.7950  159.4750 C.ar  140  TYR140      0.0417
     75  CE2      128.6520  -42.2560  161.1040 C.ar  140  TYR140      0.0417
     76  CZ       127.5750  -42.7960  160.4140 C.ar  140  TYR140      0.1957
     77  OH       126.3000  -42.3410  160.6560 O.3   140  TYR140     -0.2866
     78  N        122.1590  -45.0010  162.4420 N.3   277  ASP277     -0.1239
     79  CA       122.5280  -43.7780  163.1490 C.3   277  ASP277      0.1674
     80  C        121.3820  -42.7570  163.1960 C.2   277  ASP277      0.2266
     81  O        120.9990  -42.2930  164.2750 O.2   277  ASP277     -0.2867
     82  CB       123.7650  -43.1660  162.4810 C.3   277  ASP277      0.1410
     83  CG       124.3190  -41.9610  163.2300 C.2   277  ASP277      0.3668
     84  OD1      123.8000  -41.6110  164.3110 O.co2 277  ASP277     -0.2456
     85  OD2      125.2870  -41.3060  162.7890 O.co2 277  ASP277     -0.2456
     86  N        117.8700  -41.9980  166.4560 N.3   281  ASP281     -0.1239
     87  CA       117.3970  -40.7310  167.0090 C.3   281  ASP281      0.1674
     88  C        115.8920  -40.5670  166.8110 C.2   281  ASP281      0.2266
     89  O        115.1820  -40.1630  167.7350 O.2   281  ASP281     -0.2867
     90  CB       118.1530  -39.5530  166.3820 C.3   281  ASP281      0.1410
     91  CG       119.5580  -39.3860  166.9460 C.2   281  ASP281      0.3668
     92  OD1      120.2050  -38.3660  166.6230 O.co2 281  ASP281     -0.2456
     93  OD2      120.0920  -40.2170  167.7140 O.co2 281  ASP281     -0.2456
     94  N        127.5510  -48.6810  175.6530 N.3   308  GLU308     -0.1245
     95  CA       127.8390  -47.2490  175.7260 C.3   308  GLU308      0.1567
     96  C        126.6550  -46.4040  176.1960 C.2   308  GLU308      0.2260
     97  O        125.5050  -46.8500  176.1690 O.2   308  GLU308     -0.2867
     98  CB       128.3350  -46.7410  174.3680 C.3   308  GLU308      0.0388
     99  CG       127.2250  -46.5000  173.3560 C.3   308  GLU308      0.1160
    100  CD       127.7440  -46.1300  171.9850 C.2   308  GLU308      0.3649
    101  OE1      128.4390  -45.0980  171.8700 O.co2 308  GLU308     -0.2457
    102  OE2      127.4500  -46.8680  171.0210 O.co2 308  GLU308     -0.2457
@<TRIPOS>BOND
     1    66    67    1
     2    68    67    1
     3    68    69    2
     4    67    70    1
     5    72    74   ar
     6    72    71   ar
     7    74    76   ar
     8    70    71    1
     9    71    73   ar
    10    76    77    1
    11    76    75   ar
    12    73    75   ar
    13    78    79    1
    14    82    79    1
    15    82    83    1
    16    85    83   ar
    17    57    56    1
    18    57    58    2
    19    60    59    1
    20    60    61    1
    21    56    59    1
    22    56    55    1
    23    79    80    1
    24    80    81    2
    25    83    84   ar
    26    65    63    1
    27    62    63    2
    28    62    61    1
    29    63    64    1
    30    32    31    2
    31    36    35    2
    32    35    34    1
    33    31    30    1
    34    30    29    1
    35    37    34    1
    36    37    38    1
    37    15    16    1
    38    34    33    1
    39    39    38    1
    40    39    40    1
    41    90    91    1
    42    90    87    1
    43    86    87    1
    44    19    16    1
    45    19    20    1
    46    42    41    1
    47    29    23   am
    48    92    91   ar
    49    88    87    1
    50    88    89    2
    51    18    17    2
    52    91    93   ar
    53    14    12    1
    54    16    17    1
    55    24    23    2
    56    40    41    2
    57    23    22    1
    58    41    43    1
    59    50    49    1
    60    50    51    1
    61    12    13    1
    62    12     9    1
    63    49    48    1
    64    53    52    1
    65    11    10    2
    66    22    25    1
    67    22    21    1
    68    48    45    1
    69    10     9    1
    70    25    26    1
    71    44    45    1
    72    47    46    2
    73    51    52    2
    74     9     8    1
    75    52    54    1
    76    45    46    1
    77    26    28   am
    78    26    27    2
    79   102   100   ar
    80   101   100   ar
    81   100    99    1
    82     6     5    1
    83    99    98    1
    84     4     3    2
    85     3     2    1
    86     5     2    1
    87     5     7    1
    88    98    95    1
    89     2     1    1
    90    94    95    1
    91    95    96    1
    92    97    96    2
