@<TRIPOS>MOLECULE
tmp/2qfyE00.pdb
 100 91 0 0 0
SMALL
GASTEIGER

@<TRIPOS>ATOM
      1  N         -9.7500  -44.2370   10.8980 N.3    76  THR76      -0.1218
      2  CA       -11.1310  -44.5280   11.2590 C.3    76  THR76       0.1862
      3  C        -11.4610  -44.0650   12.6700 C.2    76  THR76       0.2287
      4  O        -10.5680  -43.8570   13.4980 O.2    76  THR76      -0.2866
      5  CB       -11.4400  -46.0380   11.1580 C.3    76  THR76       0.1770
      6  OG1      -10.4940  -46.7730   11.9410 O.3    76  THR76      -0.2211
      7  CG2      -11.3710  -46.5050    9.7120 C.3    76  THR76       0.0375
      8  N        -13.3310  -44.5990   16.3520 N.3    78  THR78      -0.1218
      9  CA       -13.7800  -45.5940   17.3070 C.3    78  THR78       0.1862
     10  C        -14.8650  -44.9170   18.1360 C.2    78  THR78       0.2287
     11  O        -14.5870  -44.0020   18.9090 O.2    78  THR78      -0.2866
     12  CB       -12.6370  -46.0360   18.2240 C.3    78  THR78       0.1770
     13  OG1      -11.5880  -46.6030   17.4310 O.3    78  THR78      -0.2211
     14  CG2      -13.1320  -47.0650   19.2240 C.3    78  THR78       0.0375
     15  N        -12.4000  -50.7100   18.2140 N.3    95  SER95      -0.1217
     16  CA       -11.5030  -50.1820   17.1960 C.3    95  SER95       0.1889
     17  C        -11.2260  -51.2130   16.1080 C.2    95  SER95       0.2288
     18  O        -10.9010  -52.3690   16.3960 O.2    95  SER95      -0.2866
     19  CB       -10.1760  -49.7580   17.8280 C.3    95  SER95       0.2089
     20  OG        -9.1860  -49.5760   16.8300 O.3    95  SER95      -0.2183
     21  N         -8.7840  -51.1450   14.1060 N.3    97  ASN97      -0.1240
     22  CA        -7.3330  -51.3540   14.0960 C.3    97  ASN97       0.1653
     23  C         -6.9900  -52.5400   14.9800 C.2    97  ASN97       0.2266
     24  O         -6.1800  -53.3870   14.6110 O.2    97  ASN97      -0.2867
     25  CB        -6.6010  -50.1120   14.6130 C.3    97  ASN97       0.1155
     26  CG        -6.7300  -48.9330   13.6790 C.2    97  ASN97       0.2627
     27  OD1       -6.2990  -48.9940   12.5310 O.2    97  ASN97      -0.2716
     28  ND2       -7.3260  -47.8510   14.1650 N.am   97  ASN97      -0.0877
     29  N         -5.4740  -56.0560   13.6740 N.3   101  ARG101     -0.1245
     30  CA        -4.2170  -56.5320   14.2440 C.3   101  ARG101      0.1563
     31  C         -4.3960  -57.8970   14.8920 C.2   101  ARG101      0.2260
     32  O         -3.5180  -58.7550   14.8020 O.2   101  ARG101     -0.2867
     33  CB        -3.6950  -55.5370   15.2740 C.3   101  ARG101      0.0307
     34  CG        -3.1640  -54.2670   14.6610 C.3   101  ARG101      0.0489
     35  CD        -3.2050  -53.1350   15.6600 C.3   101  ARG101      0.2205
     36  NE        -2.8230  -51.8750   15.0370 N.pl3 101  ARG101     -0.0865
     37  CZ        -3.0470  -50.6810   15.5720 C.cat 101  ARG101      0.5346
     38  NH1       -3.6510  -50.5810   16.7510 N.pl3 101  ARG101      0.1354
     39  NH2       -2.6800  -49.5880   14.9180 N.pl3 101  ARG101      0.1354
     40  N          6.4110  -48.3040   13.5730 N.3   110  ARG110     -0.1245
     41  CA         6.0850  -46.9000   13.4160 C.3   110  ARG110      0.1563
     42  C          7.3400  -46.0420   13.4990 C.2   110  ARG110      0.2260
     43  O          8.1370  -46.1820   14.4260 O.2   110  ARG110     -0.2867
     44  CB         5.0830  -46.4840   14.4900 C.3   110  ARG110      0.0307
     45  CG         3.7930  -47.2950   14.4430 C.3   110  ARG110      0.0489
     46  CD         2.9800  -47.0850   15.6880 C.3   110  ARG110      0.2205
     47  NE         2.4500  -45.7320   15.7700 N.pl3 110  ARG110     -0.0865
     48  CZ         1.2570  -45.3760   15.3110 C.cat 110  ARG110      0.5346
     49  NH1        0.4710  -46.2800   14.7380 N.pl3 110  ARG110      0.1354
     50  NH2        0.8470  -44.1210   15.4330 N.pl3 110  ARG110      0.1354
     51  N          6.0540  -52.3040   17.5850 N.3   133  ARG133     -0.1245
     52  CA         5.0040  -52.6550   18.5360 C.3   133  ARG133      0.1563
     53  C          4.3270  -54.0030   18.2860 C.2   133  ARG133      0.2260
     54  O          3.7500  -54.2350   17.2150 O.2   133  ARG133     -0.2867
     55  CB         3.9450  -51.5500   18.5460 C.3   133  ARG133      0.0307
     56  CG         2.6700  -51.8860   19.3180 C.3   133  ARG133      0.0489
     57  CD         1.6000  -50.8280   19.0840 C.3   133  ARG133      0.2205
     58  NE         0.3310  -51.1750   19.7200 N.pl3 133  ARG133     -0.0865
     59  CZ        -0.8020  -50.4970   19.5510 C.cat 133  ARG133      0.5346
     60  NH1       -0.8280  -49.4310   18.7650 N.pl3 133  ARG133      0.1354
     61  NH2       -1.9140  -50.8880   20.1620 N.pl3 133  ARG133      0.1354
     62  N         -5.1730  -55.4080   24.9050 N.3   140  TYR140     -0.1241
     63  CA        -6.0490  -55.1410   23.7660 C.3   140  TYR140      0.1605
     64  C         -6.9850  -56.3150   23.4550 C.2   140  TYR140      0.2264
     65  O         -7.7720  -56.2560   22.5120 O.2   140  TYR140     -0.2867
     66  CB        -5.2190  -54.7670   22.5330 C.3   140  TYR140      0.0534
     67  CG        -4.4000  -53.5140   22.7550 C.ar  140  TYR140     -0.0201
     68  CD1       -3.1940  -53.5610   23.4490 C.ar  140  TYR140     -0.0009
     69  CD2       -4.8800  -52.2670   22.3460 C.ar  140  TYR140     -0.0009
     70  CE1       -2.4860  -52.3930   23.7410 C.ar  140  TYR140      0.0417
     71  CE2       -4.1860  -51.0930   22.6290 C.ar  140  TYR140      0.0417
     72  CZ        -2.9920  -51.1630   23.3300 C.ar  140  TYR140      0.1957
     73  OH        -2.3310  -50.0030   23.6490 O.3   140  TYR140     -0.2866
     74  N          2.1050  -48.6790   21.8990 N.3   277  ASP277     -0.1239
     75  CA         1.0590  -47.7040   21.6150 C.3   277  ASP277      0.1674
     76  C          1.3990  -46.3350   22.2230 C.2   277  ASP277      0.2266
     77  O          1.3420  -45.3040   21.5410 O.2   277  ASP277     -0.2867
     78  CB        -0.2840  -48.2260   22.1510 C.3   277  ASP277      0.1410
     79  CG        -1.4610  -47.3270   21.7860 C.2   277  ASP277      0.3668
     80  OD1       -1.4220  -46.6770   20.7180 O.co2 277  ASP277     -0.2456
     81  OD2       -2.4390  -47.2850   22.5630 O.co2 277  ASP277     -0.2456
     82  N         -1.2930  -48.1640    7.3670 N.3   308  GLU308     -0.1231
     83  CA        -2.4150  -47.3600    7.8260 C.3   308  GLU308      0.1699
     84  C         -2.0270  -45.9160    8.0880 C.2   308  GLU308      0.2592
     85  O         -0.8680  -45.6070    8.3600 O.2   308  GLU308     -0.2718
     86  CB        -2.9930  -47.9580    9.1110 C.3   308  GLU308      0.0402
     87  CG        -1.9770  -48.0410   10.2380 C.3   308  GLU308      0.1161
     88  CD        -2.5470  -48.6200   11.5190 C.2   308  GLU308      0.3649
     89  OE1       -1.7720  -48.7910   12.4850 O.co2 308  GLU308     -0.2457
     90  OE2       -3.7630  -48.9010   11.5620 O.co2 308  GLU308     -0.2457
     91  N         -3.0110  -45.0320    7.9960 N.am  309  ALA309     -0.1966
     92  CA        -2.7950  -43.6190    8.2510 C.3   309  ALA309      0.1728
     93  C         -2.8750  -43.4630    9.7600 C.2   309  ALA309      0.2616
     94  O         -3.8900  -43.8030   10.3690 O.2   309  ALA309     -0.2715
     95  CB        -3.8760  -42.7920    7.5750 C.3   309  ALA309      0.0334
     96  N         -1.8000  -42.9580   10.3570 N.am  310  ALA310     -0.1977
     97  CA        -1.7340  -42.7740   11.8030 C.3   310  ALA310      0.1597
     98  C         -2.5350  -41.5760   12.3050 C.2   310  ALA310      0.2287
     99  O         -3.2370  -41.6640   13.3120 O.2   310  ALA310     -0.2864
    100  CB        -0.2790  -42.6400   12.2340 C.3   310  ALA310      0.0319
@<TRIPOS>BOND
     1    82    83    1
     2    95    92    1
     3    83    84    1
     4    83    86    1
     5    91    84   am
     6    91    92    1
     7    84    85    2
     8    92    93    1
     9    86    87    1
    10     7     5    1
    11    93    96   am
    12    93    94    2
    13    87    88    1
    14    96    97    1
    15     1     2    1
    16     5     2    1
    17     5     6    1
    18     2     3    1
    19    88    90   ar
    20    88    89   ar
    21    97   100    1
    22    97    98    1
    23    98    99    2
    24    27    26    2
    25     3     4    2
    26    41    42    1
    27    41    40    1
    28    41    44    1
    29    42    43    2
    30    29    30    1
    31    26    28   am
    32    26    25    1
    33    22    21    1
    34    22    25    1
    35    22    23    1
    36    30    31    1
    37    30    33    1
    38    45    44    1
    39    45    46    1
    40    24    23    2
    41    34    33    1
    42    34    35    1
    43    49    48    1
    44    32    31    2
    45    39    37    1
    46    36    37    2
    47    36    35    1
    48    48    50    1
    49    48    47    2
    50    37    38    1
    51    46    47    1
    52    17    18    2
    53    17    16    1
    54     8     9    1
    55    20    19    1
    56    16    19    1
    57    16    15    1
    58    54    53    2
    59     9    10    1
    60     9    12    1
    61    13    12    1
    62    51    52    1
    63    10    11    2
    64    12    14    1
    65    53    52    1
    66    52    55    1
    67    55    56    1
    68    60    59    1
    69    57    56    1
    70    57    58    1
    71    59    58    2
    72    59    61    1
    73    80    79   ar
    74    77    76    2
    75    75    74    1
    76    75    78    1
    77    75    76    1
    78    79    78    1
    79    79    81   ar
    80    69    71   ar
    81    69    67   ar
    82    65    64    2
    83    66    67    1
    84    66    63    1
    85    71    72   ar
    86    67    68   ar
    87    72    73    1
    88    72    70   ar
    89    68    70   ar
    90    64    63    1
    91    63    62    1
