@<TRIPOS>MOLECULE
tmp/2qg0A00.pdb
 168 156 0 0 0
SMALL
GASTEIGER

@<TRIPOS>ATOM
      1  N         10.5080   26.6670   12.0440 N.3    32  LEU32      -0.1245
      2  CA        11.2140   27.2290   13.1930 C.3    32  LEU32       0.1561
      3  C         10.8010   26.5200   14.4850 C.2    32  LEU32       0.2260
      4  O         11.6250   26.2920   15.3660 O.2    32  LEU32      -0.2867
      5  CB        10.9500   28.7390   13.3150 C.3    32  LEU32       0.0270
      6  CG        11.4800   29.6140   12.1710 C.3    32  LEU32       0.0019
      7  CD1       11.1540   31.0700   12.4340 C.3    32  LEU32       0.0001
      8  CD2       12.9750   29.4290   12.0350 C.3    32  LEU32       0.0001
      9  N         12.6590   23.2940   14.6100 N.3    35  ASN35      -0.1225
     10  CA        14.0390   23.4820   15.0460 C.3    35  ASN35       0.1785
     11  C         14.0730   23.6210   16.5690 C.2    35  ASN35       0.2597
     12  O         14.9050   23.0050   17.2430 O.2    35  ASN35      -0.2718
     13  CB        14.6530   24.7260   14.3750 C.3    35  ASN35       0.1169
     14  CG        15.0710   24.4750   12.9300 C.2    35  ASN35       0.2627
     15  OD1       14.9780   23.3570   12.4310 O.2    35  ASN35      -0.2716
     16  ND2       15.5460   25.5200   12.2570 N.am   35  ASN35      -0.0877
     17  N         13.1630   24.4230   17.1140 N.am   36  SER36      -0.1952
     18  CA        13.1050   24.6090   18.5610 C.3    36  SER36       0.1924
     19  C         12.9050   23.2690   19.2810 C.2    36  SER36       0.2314
     20  O         13.5960   22.9680   20.2540 O.2    36  SER36      -0.2863
     21  CB        11.9680   25.5560   18.9300 C.3    36  SER36       0.2116
     22  OG        12.2910   26.8910   18.5840 O.3    36  SER36      -0.2180
     23  N         13.6130   20.2670   18.2490 N.3    38  ASP38      -0.1225
     24  CA        14.8230   19.4540   18.1580 C.3    38  ASP38       0.1805
     25  C         15.8790   19.9450   19.1410 C.2    38  ASP38       0.2597
     26  O         16.5630   19.1410   19.7690 O.2    38  ASP38      -0.2718
     27  CB        15.4090   19.4750   16.7440 C.3    38  ASP38       0.1424
     28  CG        14.5060   18.8130   15.7290 C.2    38  ASP38       0.3668
     29  OD1       13.5010   18.2010   16.1330 O.co2  38  ASP38      -0.2456
     30  OD2       14.8140   18.8960   14.5210 O.co2  38  ASP38      -0.2456
     31  N         16.0170   21.2630   19.2700 N.am   39  ALA39      -0.1979
     32  CA        16.9970   21.8340   20.1950 C.3    39  ALA39       0.1597
     33  C         16.6220   21.4740   21.6280 C.2    39  ALA39       0.2287
     34  O         17.4940   21.3020   22.4760 O.2    39  ALA39      -0.2864
     35  CB        17.0600   23.3480   20.0380 C.3    39  ALA39       0.0319
     36  N         17.5940   17.8720   22.4580 N.3    42  LYS42      -0.1245
     37  CA        19.0330   17.8250   22.7060 C.3    42  LYS42       0.1561
     38  C         19.3990   18.1350   24.1470 C.2    42  LYS42       0.2260
     39  O         20.0680   17.3320   24.8050 O.2    42  LYS42      -0.2867
     40  CB        19.7680   18.7980   21.7820 C.3    42  LYS42       0.0271
     41  CG        21.2660   18.8600   22.0390 C.3    42  LYS42       0.0035
     42  CD        22.0390   17.9430   21.1130 C.3    42  LYS42       0.0206
     43  CE        22.0800   18.4970   19.6960 C.3    42  LYS42       0.1093
     44  NZ        20.7570   18.4850   19.0150 N.3    42  LYS42      -0.1314
     45  N         12.8530   29.5590   22.3960 N.3    77  ASP77      -0.1239
     46  CA        12.8930   28.2420   22.9910 C.3    77  ASP77       0.1674
     47  C         13.9930   28.2290   24.0270 C.2    77  ASP77       0.2266
     48  O         14.8430   29.1180   24.0500 O.2    77  ASP77      -0.2867
     49  CB        13.1360   27.1450   21.9320 C.3    77  ASP77       0.1410
     50  CG        14.5460   27.1680   21.3420 C.2    77  ASP77       0.3668
     51  OD1       15.5320   26.9260   22.0760 O.co2  77  ASP77      -0.2456
     52  OD2       14.6700   27.4110   20.1220 O.co2  77  ASP77      -0.2456
     53  N         18.9780   23.6740   23.5610 N.3    80  ILE80      -0.1231
     54  CA        20.4300   23.6500   23.7390 C.3    80  ILE80       0.1692
     55  C         21.1550   24.9420   23.3380 C.2    80  ILE80       0.2593
     56  O         22.2390   25.2300   23.8420 O.2    80  ILE80      -0.2718
     57  CB        21.0460   22.4630   22.9580 C.3    80  ILE80       0.0266
     58  CG1       22.4910   22.2270   23.4020 C.3    80  ILE80       0.0019
     59  CG2       20.9950   22.7280   21.4720 C.3    80  ILE80       0.0020
     60  CD1       22.6040   21.4680   24.6980 C.3    80  ILE80       0.0001
     61  N         20.5640   25.7230   22.4400 N.am   81  GLY81      -0.1942
     62  CA        21.2030   26.9560   22.0240 C.3    81  GLY81       0.2014
     63  C         22.4050   26.7250   21.1200 C.2    81  GLY81       0.2638
     64  O         22.7420   25.5850   20.8050 O.2    81  GLY81      -0.2714
     65  N         23.0520   27.8090   20.7030 N.am   82  MET82      -0.1976
     66  CA        24.2180   27.7120   19.8250 C.3    82  MET82       0.1605
     67  C         25.4010   28.5130   20.3510 C.2    82  MET82       0.2287
     68  O         25.2350   29.6290   20.8340 O.2    82  MET82      -0.2864
     69  CB        23.8820   28.2350   18.4220 C.3    82  MET82       0.0413
     70  CG        22.9570   27.3600   17.5990 C.3    82  MET82       0.0598
     71  SD        22.5180   28.1490   16.0320 S.3    82  MET82      -0.1393
     72  CE        21.2150   29.2210   16.5680 C.3    82  MET82       0.0692
     73  N         28.8790   27.5450   16.5530 N.3    86  ASP86      -0.1239
     74  CA        27.6640   26.9180   16.0350 C.3    86  ASP86       0.1674
     75  C         26.9350   27.8900   15.1150 C.2    86  ASP86       0.2266
     76  O         26.5220   27.5270   14.0130 O.2    86  ASP86      -0.2867
     77  CB        26.7330   26.5290   17.1900 C.3    86  ASP86       0.1410
     78  CG        27.2690   25.3840   18.0260 C.2    86  ASP86       0.3668
     79  OD1       26.7770   25.2100   19.1660 O.co2  86  ASP86      -0.2456
     80  OD2       28.1630   24.6550   17.5510 O.co2  86  ASP86      -0.2456
     81  N         26.4180   26.5750   11.5570 N.3    90  ASN90      -0.1225
     82  CA        25.0610   26.1240   11.2780 C.3    90  ASN90       0.1785
     83  C         24.2540   27.1020   10.4480 C.2    90  ASN90       0.2597
     84  O         23.4260   26.6920    9.6360 O.2    90  ASN90      -0.2718
     85  CB        24.3070   25.8550   12.5820 C.3    90  ASN90       0.1169
     86  CG        24.9920   24.8220   13.4460 C.2    90  ASN90       0.2627
     87  OD1       25.9190   24.1420   13.0060 O.2    90  ASN90      -0.2716
     88  ND2       24.5320   24.6930   14.6850 N.am   90  ASN90      -0.0877
     89  N         24.4870   28.3930   10.6450 N.am   91  LEU91      -0.1980
     90  CA        23.7260   29.3930    9.9020 C.3    91  LEU91       0.1596
     91  C         24.4490   30.0630    8.7340 C.2    91  LEU91       0.2287
     92  O         23.8170   30.7080    7.9030 O.2    91  LEU91      -0.2864
     93  CB        23.1990   30.4610   10.8660 C.3    91  LEU91       0.0297
     94  CG        22.2160   29.9650   11.9300 C.3    91  LEU91       0.0022
     95  CD1       21.5590   31.1470   12.6090 C.3    91  LEU91       0.0001
     96  CD2       21.1560   29.0880   11.2860 C.3    91  LEU91       0.0001
     97  N         27.0070   28.3230    6.7420 N.3    93  THR93      -0.1218
     98  CA        27.5450   27.3630    5.7840 C.3    93  THR93       0.1862
     99  C         26.6560   26.1340    5.6100 C.2    93  THR93       0.2287
    100  O         25.7950   25.8530    6.4420 O.2    93  THR93      -0.2866
    101  CB        28.9310   26.8600    6.2250 C.3    93  THR93       0.1770
    102  OG1       28.7700   25.8740    7.2500 O.3    93  THR93      -0.2211
    103  CG2       29.7700   28.0100    6.7710 C.3    93  THR93       0.0375
    104  N         23.9420   20.2270    6.4970 N.3    97  SER97      -0.1217
    105  CA        22.6650   20.3750    5.8030 C.3    97  SER97       0.1889
    106  C         22.6760   19.7700    4.4070 C.2    97  SER97       0.2288
    107  O         23.7310   19.4570    3.8540 O.2    97  SER97      -0.2866
    108  CB        22.2960   21.8510    5.6690 C.3    97  SER97       0.2089
    109  OG        23.0210   22.4350    4.6010 O.3    97  SER97      -0.2183
    110  N         17.3690   19.9040    6.1780 N.3   119  GLY119     -0.1210
    111  CA        18.1200   20.5900    7.2150 C.3   119  GLY119      0.1956
    112  C         18.3580   22.0770    7.0020 C.2   119  GLY119      0.2612
    113  O         19.3400   22.6250    7.5090 O.2   119  GLY119     -0.2717
    114  N         17.4800   22.7310    6.2510 N.am  120  VAL120     -0.1965
    115  CA        17.6130   24.1640    5.9860 C.3   120  VAL120      0.1727
    116  C         16.3100   24.9490    6.1620 C.2   120  VAL120      0.2617
    117  O         16.1250   26.0160    5.5770 O.2   120  VAL120     -0.2715
    118  CB        18.1610   24.4190    4.5700 C.3   120  VAL120      0.0290
    119  CG1       19.6760   24.2040    4.5630 C.3   120  VAL120      0.0023
    120  CG2       17.4840   23.4910    3.5710 C.3   120  VAL120      0.0023
    121  N         15.4270   24.4210    7.0020 N.am  121  GLY121     -0.1940
    122  CA        14.1560   25.0630    7.2530 C.3   121  GLY121      0.2014
    123  C         14.2680   26.4550    7.8420 C.2   121  GLY121      0.2639
    124  O         13.3480   27.2500    7.6990 O.2   121  GLY121     -0.2714
    125  N         15.3760   26.7470    8.5130 N.am  122  PHE122     -0.1959
    126  CA        15.5790   28.0710    9.1080 C.3   122  PHE122      0.1771
    127  C         15.3820   29.1550    8.0570 C.2   122  PHE122      0.2619
    128  O         14.6860   30.1390    8.2800 O.2   122  PHE122     -0.2715
    129  CB        16.9950   28.1960    9.6860 C.3   122  PHE122      0.0574
    130  CG        17.3840   29.6130   10.0470 C.ar  122  PHE122     -0.0200
    131  CD1       16.9270   30.1990   11.2140 C.ar  122  PHE122     -0.0042
    132  CD2       18.1910   30.3610    9.2020 C.ar  122  PHE122     -0.0042
    133  CE1       17.2650   31.5070   11.5340 C.ar  122  PHE122     -0.0003
    134  CE2       18.5320   31.6690    9.5150 C.ar  122  PHE122     -0.0003
    135  CZ        18.0670   32.2410   10.6840 C.ar  122  PHE122     -0.0000
    136  N         15.9910   28.9480    6.8970 N.am  123  TYR123     -0.1974
    137  CA        15.9270   29.9140    5.8200 C.3   123  TYR123      0.1639
    138  C         14.5270   30.2300    5.2940 C.2   123  TYR123      0.2290
    139  O         14.3420   31.2420    4.6280 O.2   123  TYR123     -0.2864
    140  CB        16.8490   29.4670    4.6810 C.3   123  TYR123      0.0560
    141  CG        18.2990   29.3700    5.1190 C.ar  123  TYR123     -0.0198
    142  CD1       19.0350   30.5140    5.4030 C.ar  123  TYR123     -0.0009
    143  CD2       18.8930   28.1360    5.3450 C.ar  123  TYR123     -0.0009
    144  CE1       20.3240   30.4260    5.9170 C.ar  123  TYR123      0.0417
    145  CE2       20.1720   28.0390    5.8510 C.ar  123  TYR123      0.0417
    146  CZ        20.8800   29.1860    6.1390 C.ar  123  TYR123      0.1957
    147  OH        22.1410   29.0820    6.6820 O.3   123  TYR123     -0.2866
    148  N         18.9550   36.5330   15.3010 N.3   134  VAL134     -0.1245
    149  CA        18.9330   35.3280   16.1180 C.3   134  VAL134      0.1561
    150  C         19.7870   35.5550   17.3500 C.2   134  VAL134      0.2260
    151  O         20.9770   35.8250   17.2470 O.2   134  VAL134     -0.2867
    152  CB        19.4990   34.1210   15.3540 C.3   134  VAL134      0.0252
    153  CG1       19.3340   32.8520   16.1840 C.3   134  VAL134      0.0019
    154  CG2       18.8110   33.9990   14.0010 C.3   134  VAL134      0.0019
    155  N         17.4170   29.8320   22.2060 N.3   168  THR168     -0.1218
    156  CA        17.5370   30.5660   20.9630 C.3   168  THR168      0.1862
    157  C         16.2720   31.3700   20.7220 C.2   168  THR168      0.2287
    158  O         15.1660   30.8870   20.9600 O.2   168  THR168     -0.2866
    159  CB        17.7420   29.5910   19.7790 C.3   168  THR168      0.1770
    160  OG1       18.9150   28.7990   20.0140 O.3   168  THR168     -0.2211
    161  CG2       17.8980   30.3550   18.4660 C.3   168  THR168      0.0375
    162  N         14.4990   33.5480   17.6600 N.3   170  VAL170     -0.1245
    163  CA        14.5290   33.9370   16.2570 C.3   170  VAL170      0.1561
    164  C         13.5540   35.0870   16.0920 C.2   170  VAL170      0.2260
    165  O         12.3490   34.9200   16.2610 O.2   170  VAL170     -0.2867
    166  CB        14.1100   32.7720   15.3320 C.3   170  VAL170      0.0252
    167  CG1       14.1220   33.2280   13.8770 C.3   170  VAL170      0.0019
    168  CG2       15.0500   31.6080   15.5340 C.3   170  VAL170      0.0019
@<TRIPOS>BOND
     1   120   118    1
     2   107   106    2
     3   106   105    1
     4   119   118    1
     5   118   115    1
     6   109   108    1
     7   139   138    2
     8   140   141    1
     9   140   137    1
    10   141   143   ar
    11   141   142   ar
    12   138   137    1
    13   143   145   ar
    14   142   144   ar
    15   117   116    2
    16    99    98    1
    17    99   100    2
    18   108   105    1
    19    98   101    1
    20    98    97    1
    21   105   104    1
    22   137   136    1
    23   145   146   ar
    24   144   146   ar
    25   115   116    1
    26   115   114    1
    27   146   147    1
    28   116   121   am
    29   110   111    1
    30   101   103    1
    31   101   102    1
    32   114   112   am
    33   136   127   am
    34   112   111    1
    35   112   113    2
    36   121   122    1
    37   122   123    1
    38   124   123    2
    39   123   125   am
    40    92    91    2
    41   127   128    2
    42   127   126    1
    43   125   126    1
    44    91    90    1
    45   126   129    1
    46   132   134   ar
    47   132   130   ar
    48   134   135   ar
    49    84    83    2
    50   129   130    1
    51    90    89    1
    52    90    93    1
    53   130   131   ar
    54    83    89   am
    55    83    82    1
    56   135   133   ar
    57    93    94    1
    58   131   133   ar
    59    82    81    1
    60    82    85    1
    61    96    94    1
    62    94    95    1
    63     8     6    1
    64     1     2    1
    65     6     7    1
    66     6     5    1
    67    16    14   am
    68    15    14    2
    69    85    86    1
    70    14    13    1
    71    87    86    2
    72     2     5    1
    73     2     3    1
    74    86    88   am
    75   167   166    1
    76   154   152    1
    77    76    75    2
    78    13    10    1
    79     3     4    2
    80    30    28   ar
    81     9    10    1
    82    10    11    1
    83    75    74    1
    84   148   149    1
    85   166   168    1
    86   166   163    1
    87   152   149    1
    88   152   153    1
    89    28    29   ar
    90    28    27    1
    91    71    72    1
    92    71    70    1
    93    74    73    1
    94    74    77    1
    95   164   163    1
    96   164   165    2
    97   149   150    1
    98   163   162    1
    99    11    17   am
   100    11    12    2
   101    27    24    1
   102    17    18    1
   103    77    78    1
   104   151   150    2
   105    80    78   ar
   106    70    69    1
   107    78    79   ar
   108    24    23    1
   109    24    25    1
   110    69    66    1
   111   161   159    1
   112    18    21    1
   113    18    19    1
   114    22    21    1
   115    44    43    1
   116    25    31   am
   117    25    26    2
   118    31    32    1
   119    19    20    2
   120    43    42    1
   121   159   160    1
   122   159   156    1
   123    66    67    1
   124    66    65    1
   125    35    32    1
   126    52    50   ar
   127    32    33    1
   128    67    68    2
   129    65    63   am
   130   157   158    2
   131   157   156    1
   132    64    63    2
   133   156   155    1
   134    42    41    1
   135    63    62    1
   136    50    49    1
   137    50    51   ar
   138    59    57    1
   139    33    34    2
   140    40    41    1
   141    40    37    1
   142    49    46    1
   143    62    61    1
   144    45    46    1
   145    61    55   am
   146    36    37    1
   147    37    38    1
   148    57    58    1
   149    57    54    1
   150    46    47    1
   151    55    54    1
   152    55    56    2
   153    58    60    1
   154    53    54    1
   155    47    48    2
   156    38    39    2
