@<TRIPOS>MOLECULE
tmp/2qg2A00.pdb
 179 169 0 0 0
SMALL
GASTEIGER

@<TRIPOS>ATOM
      1  N         16.3600   26.6500   23.1590 N.3     6  PHE6       -0.1241
      2  CA        16.0220   27.9670   23.6890 C.3     6  PHE6        0.1605
      3  C         17.3310   28.7330   23.7270 C.2     6  PHE6        0.2264
      4  O         18.4020   28.1300   23.7080 O.2     6  PHE6       -0.2867
      5  CB        15.5270   27.8710   25.1340 C.3     6  PHE6        0.0534
      6  CG        14.1060   27.4400   25.2750 C.ar    6  PHE6       -0.0203
      7  CD1       13.0690   28.2800   24.8980 C.ar    6  PHE6       -0.0042
      8  CD2       13.8010   26.2170   25.8460 C.ar    6  PHE6       -0.0042
      9  CE1       11.7560   27.9110   25.0920 C.ar    6  PHE6       -0.0003
     10  CE2       12.4820   25.8390   26.0460 C.ar    6  PHE6       -0.0003
     11  CZ        11.4610   26.6850   25.6710 C.ar    6  PHE6       -0.0000
     12  N         -0.8390   34.1680   32.9190 N.3    32  LEU32      -0.1245
     13  CA        -1.3850   33.6290   31.6770 C.3    32  LEU32       0.1561
     14  C         -2.6570   34.3670   31.2630 C.2    32  LEU32       0.2260
     15  O         -2.8700   34.6340   30.0780 O.2    32  LEU32      -0.2867
     16  CB        -1.6730   32.1290   31.8220 C.3    32  LEU32       0.0270
     17  CG        -0.4440   31.2480   32.0800 C.3    32  LEU32       0.0019
     18  CD1       -0.8840   29.7940   32.2330 C.3    32  LEU32       0.0001
     19  CD2        0.5490   31.3920   30.9270 C.3    32  LEU32       0.0001
     20  N         -1.6620   37.5820   29.7940 N.3    35  ASN35      -0.1225
     21  CA        -1.2030   37.4410   28.4180 C.3    35  ASN35       0.1785
     22  C         -2.4040   37.3360   27.4890 C.2    35  ASN35       0.2597
     23  O         -2.4140   37.9330   26.4210 O.2    35  ASN35      -0.2718
     24  CB        -0.3160   36.2010   28.2600 C.3    35  ASN35       0.1169
     25  CG         1.0800   36.4130   28.8210 C.2    35  ASN35       0.2627
     26  OD1        1.4700   37.5420   29.1340 O.2    35  ASN35      -0.2716
     27  ND2        1.8460   35.3350   28.9320 N.am   35  ASN35      -0.0877
     28  N         -3.4100   36.5700   27.9060 N.am   36  SER36      -0.1952
     29  CA        -4.6190   36.4010   27.1190 C.3    36  SER36       0.1924
     30  C         -5.3250   37.7430   26.9410 C.2    36  SER36       0.2314
     31  O         -5.7880   38.0690   25.8500 O.2    36  SER36      -0.2863
     32  CB        -5.5590   35.4040   27.8040 C.3    36  SER36       0.2116
     33  OG        -5.0450   34.0840   27.7040 O.3    36  SER36      -0.2180
     34  N         -3.5530   39.8310   24.4170 N.3    39  ALA39      -0.1245
     35  CA        -3.7930   39.2820   23.0830 C.3    39  ALA39       0.1562
     36  C         -5.1810   39.6690   22.5800 C.2    39  ALA39       0.2260
     37  O         -5.3730   39.9200   21.3880 O.2    39  ALA39      -0.2867
     38  CB        -3.6410   37.7670   23.1060 C.3    39  ALA39       0.0290
     39  N         -7.9130   31.4820   24.9470 N.3    77  ASP77      -0.1239
     40  CA        -8.3540   32.8260   24.6190 C.3    77  ASP77       0.1674
     41  C         -8.5800   32.9310   23.1180 C.2    77  ASP77       0.2266
     42  O         -8.0580   32.1270   22.3360 O.2    77  ASP77      -0.2867
     43  CB        -7.3480   33.8950   25.0980 C.3    77  ASP77       0.1410
     44  CG        -6.0400   33.8910   24.3150 C.2    77  ASP77       0.3668
     45  OD1       -6.0540   34.2130   23.1070 O.co2  77  ASP77      -0.2456
     46  OD2       -4.9890   33.5770   24.9140 O.co2  77  ASP77      -0.2456
     47  N         -5.3270   37.5150   19.5070 N.3    80  ILE80      -0.1231
     48  CA        -4.6610   37.5970   18.2180 C.3    80  ILE80       0.1692
     49  C         -3.9110   36.3420   17.7810 C.2    80  ILE80       0.2593
     50  O         -3.7130   36.1220   16.5880 O.2    80  ILE80      -0.2718
     51  CB        -3.7070   38.8160   18.1860 C.3    80  ILE80       0.0266
     52  CG1       -3.2470   39.0740   16.7520 C.3    80  ILE80       0.0019
     53  CG2       -2.5140   38.5900   19.1230 C.3    80  ILE80       0.0020
     54  CD1       -2.7750   40.4900   16.5250 C.3    80  ILE80       0.0001
     55  N         -3.4940   35.5150   18.7350 N.am   81  GLY81      -0.1942
     56  CA        -2.7770   34.3100   18.3700 C.3    81  GLY81       0.2014
     57  C         -1.3210   34.5830   18.0480 C.2    81  GLY81       0.2638
     58  O         -0.8950   35.7380   17.9680 O.2    81  GLY81      -0.2714
     59  N         -0.5520   33.5160   17.8520 N.am   82  MET82      -0.1976
     60  CA         0.8680   33.6460   17.5610 C.3    82  MET82       0.1605
     61  C          1.2540   33.0490   16.2180 C.2    82  MET82       0.2287
     62  O          0.7460   31.9990   15.8330 O.2    82  MET82      -0.2864
     63  CB         1.6780   32.9550   18.6560 C.3    82  MET82       0.0413
     64  CG         1.4970   33.5580   20.0330 C.3    82  MET82       0.0598
     65  SD         2.3530   32.5950   21.2770 S.3    82  MET82      -0.1393
     66  CE         1.1980   31.3420   21.5600 C.3    82  MET82       0.0692
     67  N          6.6540   32.0690   17.6650 N.3    87  LEU87      -0.1245
     68  CA         7.0440   30.8500   18.3680 C.3    87  LEU87       0.1561
     69  C          8.5300   30.5220   18.3030 C.2    87  LEU87       0.2260
     70  O          9.1280   30.1020   19.2920 O.2    87  LEU87      -0.2867
     71  CB         6.2550   29.6570   17.8110 C.3    87  LEU87       0.0270
     72  CG         4.7350   29.6690   17.9810 C.3    87  LEU87       0.0019
     73  CD1        4.1320   28.4600   17.2670 C.3    87  LEU87       0.0001
     74  CD2        4.3860   29.6430   19.4640 C.3    87  LEU87       0.0001
     75  N          9.0920   35.9790   20.1850 N.3    91  LEU91      -0.1231
     76  CA         8.8520   35.9360   21.6230 C.3    91  LEU91       0.1693
     77  C         10.1330   35.7300   22.4210 C.2    91  LEU91       0.2592
     78  O         10.3310   36.3620   23.4570 O.2    91  LEU91      -0.2718
     79  CB         7.8360   34.8410   21.9520 C.3    91  LEU91       0.0284
     80  CG         6.3660   35.2360   21.7740 C.3    91  LEU91       0.0019
     81  CD1        6.2230   36.2430   20.6490 C.3    91  LEU91       0.0001
     82  CD2        5.5390   33.9910   21.5070 C.3    91  LEU91       0.0001
     83  N         11.0000   34.8490   21.9360 N.am   92  GLY92      -0.1957
     84  CA        12.2510   34.5970   22.6290 C.3    92  GLY92       0.1869
     85  C         13.1540   35.8160   22.5920 C.2    92  GLY92       0.2309
     86  O         13.8690   36.1080   23.5540 O.2    92  GLY92      -0.2863
     87  N         12.2470   39.0120   22.4900 N.3    94  ILE94      -0.1231
     88  CA        11.7660   39.9980   23.4440 C.3    94  ILE94       0.1692
     89  C         11.9940   39.5510   24.8830 C.2    94  ILE94       0.2591
     90  O         12.3260   40.3660   25.7420 O.2    94  ILE94      -0.2718
     91  CB        10.2630   40.2890   23.2490 C.3    94  ILE94       0.0266
     92  CG1        9.8600   41.5040   24.0840 C.3    94  ILE94       0.0019
     93  CG2        9.4320   39.0880   23.6780 C.3    94  ILE94       0.0020
     94  CD1        8.3820   41.8150   24.0260 C.3    94  ILE94       0.0001
     95  N         11.8330   38.2560   25.1390 N.am   95  ALA95      -0.1980
     96  CA        12.0050   37.7080   26.4810 C.3    95  ALA95       0.1597
     97  C         13.4410   37.7720   26.9900 C.2    95  ALA95       0.2287
     98  O         13.6830   37.7080   28.1970 O.2    95  ALA95      -0.2864
     99  CB        11.5160   36.2690   26.5150 C.3    95  ALA95       0.0319
    100  N          7.7570   41.3420   31.7890 N.3   119  GLY119     -0.1210
    101  CA         7.2390   40.8390   30.5320 C.3   119  GLY119      0.1956
    102  C          7.5030   39.3890   30.1850 C.2   119  GLY119      0.2611
    103  O          7.3110   38.9910   29.0410 O.2   119  GLY119     -0.2717
    104  N          7.9370   38.5870   31.1500 N.am  120  VAL120     -0.1979
    105  CA         8.2020   37.1840   30.8690 C.3   120  VAL120      0.1595
    106  C          7.3660   36.2570   31.7500 C.2   120  VAL120      0.2287
    107  O          7.7810   35.1400   32.0610 O.2   120  VAL120     -0.2864
    108  CB         9.7050   36.8490   31.0410 C.3   120  VAL120      0.0276
    109  CG1       10.5200   37.5840   29.9880 C.3   120  VAL120      0.0022
    110  CG2       10.1780   37.2350   32.4260 C.3   120  VAL120      0.0022
    111  N          4.9280   34.4030   31.1040 N.3   122  PHE122     -0.1227
    112  CA         4.5580   33.1150   30.5180 C.3   122  PHE122      0.1736
    113  C          5.3060   31.9440   31.1490 C.2   122  PHE122      0.2595
    114  O          4.7200   30.9000   31.4300 O.2   122  PHE122     -0.2718
    115  CB         4.8410   33.0910   29.0170 C.3   122  PHE122      0.0547
    116  CG         4.6600   31.7340   28.4010 C.ar  122  PHE122     -0.0202
    117  CD1        3.3950   31.2240   28.1790 C.ar  122  PHE122     -0.0042
    118  CD2        5.7570   30.9480   28.0900 C.ar  122  PHE122     -0.0042
    119  CE1        3.2210   29.9580   27.6630 C.ar  122  PHE122     -0.0003
    120  CE2        5.5890   29.6760   27.5740 C.ar  122  PHE122     -0.0003
    121  CZ         4.3160   29.1800   27.3610 C.ar  122  PHE122     -0.0000
    122  N          6.6040   32.1170   31.3600 N.am  123  TYR123     -0.1976
    123  CA         7.4210   31.0510   31.9230 C.3   123  TYR123      0.1639
    124  C          7.0310   30.6490   33.3380 C.2   123  TYR123      0.2290
    125  O          7.4670   29.6090   33.8290 O.2   123  TYR123     -0.2864
    126  CB         8.8970   31.4430   31.8620 C.3   123  TYR123      0.0560
    127  CG         9.3230   31.8320   30.4660 C.ar  123  TYR123     -0.0198
    128  CD1        9.4020   30.8890   29.4470 C.ar  123  TYR123     -0.0009
    129  CD2        9.5810   33.1570   30.1550 C.ar  123  TYR123     -0.0009
    130  CE1        9.7230   31.2700   28.1450 C.ar  123  TYR123      0.0417
    131  CE2        9.8990   33.5420   28.8760 C.ar  123  TYR123      0.0417
    132  CZ         9.9680   32.6030   27.8750 C.ar  123  TYR123      0.1957
    133  OH        10.2820   33.0320   26.6090 O.3   123  TYR123     -0.2866
    134  N          1.2760   24.5660   23.7340 N.3   134  VAL134     -0.1245
    135  CA         0.5540   25.7460   23.2930 C.3   134  VAL134      0.1561
    136  C          0.0250   25.5460   21.8850 C.2   134  VAL134      0.2260
    137  O          0.7980   25.3120   20.9530 O.2   134  VAL134     -0.2867
    138  CB         1.4550   26.9960   23.3070 C.3   134  VAL134      0.0252
    139  CG1        0.6860   28.1940   22.7650 C.3   134  VAL134      0.0019
    140  CG2        1.9480   27.2710   24.7380 C.3   134  VAL134      0.0019
    141  N          3.0410   24.2040   19.8750 N.3   146  TRP146     -0.1241
    142  CA         4.3610   24.4280   20.4640 C.3   146  TRP146      0.1605
    143  C          4.3750   23.5940   21.7320 C.2   146  TRP146      0.2264
    144  O          3.3370   23.4250   22.3700 O.2   146  TRP146     -0.2867
    145  CB         4.5310   25.9130   20.8170 C.3   146  TRP146      0.0550
    146  CG         5.7930   26.2810   21.5730 C.ar  146  TRP146      0.0003
    147  CD1        6.9390   26.8240   21.0500 C.ar  146  TRP146      0.0946
    148  CD2        5.9900   26.2290   22.9930 C.ar  146  TRP146      0.0152
    149  NE1        7.8240   27.1200   22.0580 N.ar  146  TRP146     -0.2442
    150  CE2        7.2680   26.7640   23.2590 C.ar  146  TRP146      0.0810
    151  CE3        5.2080   25.7870   24.0660 C.ar  146  TRP146      0.0012
    152  CZ2        7.7810   26.8720   24.5540 C.ar  146  TRP146      0.0191
    153  CZ3        5.7190   25.8940   25.3530 C.ar  146  TRP146      0.0001
    154  CH2        6.9910   26.4320   25.5850 C.ar  146  TRP146      0.0015
    155  N         12.4720   23.0300   22.7410 N.3   154  PHE154     -0.1241
    156  CA        11.0410   23.0790   22.5140 C.3   154  PHE154      0.1605
    157  C         10.7790   22.5740   21.1100 C.2   154  PHE154      0.2264
    158  O         11.7030   22.4880   20.2970 O.2   154  PHE154     -0.2867
    159  CB        10.4840   24.5000   22.7220 C.3   154  PHE154      0.0534
    160  CG        10.9890   25.5380   21.7440 C.ar  154  PHE154     -0.0203
    161  CD1       10.2930   25.8120   20.5730 C.ar  154  PHE154     -0.0042
    162  CD2       12.1200   26.2850   22.0320 C.ar  154  PHE154     -0.0042
    163  CE1       10.7160   26.8190   19.7130 C.ar  154  PHE154     -0.0003
    164  CE2       12.5540   27.2960   21.1770 C.ar  154  PHE154     -0.0003
    165  CZ        11.8450   27.5640   20.0130 C.ar  154  PHE154     -0.0000
    166  N         -5.2530   31.4240   21.2670 N.3   168  THR168     -0.1218
    167  CA        -4.2230   30.6140   21.8820 C.3   168  THR168      0.1862
    168  C         -4.7500   29.7350   23.0110 C.2   168  THR168      0.2287
    169  O         -5.5620   30.1650   23.8340 O.2   168  THR168     -0.2866
    170  CB        -3.1060   31.5050   22.4480 C.3   168  THR168      0.1770
    171  OG1       -2.5240   32.2740   21.3920 O.3   168  THR168     -0.2211
    172  CG2       -2.0380   30.6580   23.1110 C.3   168  THR168      0.0375
    173  N         -3.2260   27.4620   26.0400 N.3   170  VAL170     -0.1245
    174  CA        -2.0590   27.0530   26.8160 C.3   170  VAL170      0.1561
    175  C         -2.4890   25.8670   27.6710 C.2   170  VAL170      0.2260
    176  O         -3.3170   26.0070   28.5750 O.2   170  VAL170     -0.2867
    177  CB        -1.5440   28.1730   27.7480 C.3   170  VAL170      0.0252
    178  CG1       -0.3520   27.6630   28.5420 C.3   170  VAL170      0.0019
    179  CG2       -1.1420   29.3980   26.9350 C.3   170  VAL170      0.0019
@<TRIPOS>BOND
     1    62    61    2
     2    61    60    1
     3    54    52    1
     4    50    49    2
     5    52    51    1
     6    73    72    1
     7    60    59    1
     8    60    63    1
     9    67    68    1
    10    49    48    1
    11    49    55   am
    12    71    72    1
    13    71    68    1
    14    59    57   am
    15    58    57    2
    16    72    74    1
    17    57    56    1
    18    51    48    1
    19    51    53    1
    20    48    47    1
    21    69    68    1
    22    69    70    2
    23    56    55    1
    24    63    64    1
    25   163   165   ar
    26   163   161   ar
    27   141   142    1
    28   165   164   ar
    29    64    65    1
    30    75    76    1
    31   158   157    2
    32   142   145    1
    33   142   143    1
    34   161   160   ar
    35    81    80    1
    36   145   146    1
    37   137   136    2
    38   147   146   ar
    39   147   149   ar
    40   157   156    1
    41   164   162   ar
    42   166   167    1
    43    65    66    1
    44    37    36    2
    45   171   170    1
    46    82    80    1
    47   146   148   ar
    48    76    79    1
    49    76    77    1
    50   143   144    2
    51   160   162   ar
    52   160   159    1
    53    80    79    1
    54   167   170    1
    55   167   168    1
    56   136   135    1
    57    83    77   am
    58    83    84    1
    59   149   150   ar
    60    42    41    2
    61    77    78    2
    62   170   172    1
    63    87    88    1
    64   156   159    1
    65   156   155    1
    66    36    35    1
    67    85    84    1
    68    85    86    2
    69   139   138    1
    70   148   150   ar
    71   148   151   ar
    72   168   169    2
    73    35    38    1
    74    35    34    1
    75    45    44   ar
    76    41    40    1
    77     1     2    1
    78    91    88    1
    79    91    93    1
    80    91    92    1
    81   150   152   ar
    82   135   138    1
    83   135   134    1
    84   138   140    1
    85    88    89    1
    86     2     3    1
    87     2     5    1
    88     4     3    2
    89    94    92    1
    90   151   153   ar
    91    44    46   ar
    92    44    43    1
    93   152   154   ar
    94    40    39    1
    95    40    43    1
    96    89    95   am
    97    89    90    2
    98     7     9   ar
    99     7     6   ar
   100     9    11   ar
   101     5     6    1
   102    95    96    1
   103     6     8   ar
   104   153   154   ar
   105    11    10   ar
   106     8    10   ar
   107    31    30    2
   108   173   174    1
   109    23    22    2
   110    96    99    1
   111    96    97    1
   112   133   132    1
   113   174   175    1
   114   174   177    1
   115   179   177    1
   116    30    29    1
   117    97    98    2
   118    29    32    1
   119    29    28    1
   120   121   120   ar
   121   121   119   ar
   122    22    28   am
   123    22    21    1
   124   120   118   ar
   125   119   117   ar
   126   175   176    2
   127    33    32    1
   128   177   178    1
   129   132   130   ar
   130   132   131   ar
   131   118   116   ar
   132   130   128   ar
   133   117   116   ar
   134    24    21    1
   135    24    25    1
   136   116   115    1
   137    21    20    1
   138    25    27   am
   139    25    26    2
   140   131   129   ar
   141   115   112    1
   142   103   102    2
   143   128   127   ar
   144   109   108    1
   145    15    14    2
   146   129   127   ar
   147   102   101    1
   148   102   104   am
   149   127   126    1
   150   112   111    1
   151   112   113    1
   152   101   100    1
   153   105   108    1
   154   105   104    1
   155   105   106    1
   156    19    17    1
   157   108   110    1
   158   113   122   am
   159   113   114    2
   160    14    13    1
   161   122   123    1
   162    13    16    1
   163    13    12    1
   164   106   107    2
   165    16    17    1
   166   126   123    1
   167   123   124    1
   168    17    18    1
   169   124   125    2
