@<TRIPOS>MOLECULE
tmp/2qg6A00.pdb
 160 155 0 0 0
SMALL
GASTEIGER

@<TRIPOS>ATOM
      1  N         15.1910   53.0490   27.9820 N.3    11  THR11      -0.1203
      2  CA        13.8110   53.3090   27.6080 C.3    11  THR11       0.1994
      3  C         13.5880   53.2140   26.1010 C.2    11  THR11       0.2617
      4  O         14.4880   53.5120   25.3120 O.2    11  THR11      -0.2717
      5  CB        13.3930   54.7280   28.0500 C.3    11  THR11       0.1784
      6  OG1       12.1020   55.0410   27.5130 O.3    11  THR11      -0.2211
      7  CG2       14.4010   55.7590   27.5430 C.3    11  THR11       0.0376
      8  N         12.3940   52.7730   25.7130 N.am   12  ASN12      -0.1974
      9  CA        12.0100   52.7170   24.3050 C.3    12  ASN12       0.1688
     10  C         13.0570   52.0510   23.4100 C.2    12  ASN12       0.2292
     11  O         13.4730   52.6270   22.4010 O.2    12  ASN12      -0.2864
     12  CB        11.7650   54.1590   23.8380 C.3    12  ASN12       0.1181
     13  CG        10.9400   54.2470   22.5770 C.2    12  ASN12       0.2629
     14  OD1       11.1110   55.1730   21.7820 O.2    12  ASN12      -0.2716
     15  ND2       10.0260   53.3060   22.3930 N.am   12  ASN12      -0.0877
     16  N         12.1440   46.4270   24.0970 N.3    15  LYS15      -0.1231
     17  CA        12.1100   45.3760   25.1100 C.3    15  LYS15       0.1693
     18  C         10.8260   44.5460   25.0970 C.2    15  LYS15       0.2592
     19  O         10.8710   43.3170   25.1590 O.2    15  LYS15      -0.2718
     20  CB        12.3100   45.9950   26.4970 C.3    15  LYS15       0.0285
     21  CG        13.6400   46.7200   26.6520 C.3    15  LYS15       0.0035
     22  CD        13.8430   47.2640   28.0600 C.3    15  LYS15       0.0206
     23  CE        12.7510   48.2430   28.4650 C.3    15  LYS15       0.1093
     24  NZ        12.7340   49.4700   27.6140 N.3    15  LYS15      -0.1314
     25  N          9.6800   45.2140   25.0250 N.am   16  THR16      -0.1953
     26  CA         8.4100   44.5020   25.0190 C.3    16  THR16       0.1897
     27  C          8.2620   43.6730   23.7440 C.2    16  THR16       0.2313
     28  O          7.8180   42.5250   23.7900 O.2    16  THR16      -0.2863
     29  CB         7.2260   45.4780   25.1310 C.3    16  THR16       0.1794
     30  OG1        7.4280   46.3410   26.2590 O.3    16  THR16      -0.2208
     31  CG2        5.9230   44.7070   25.3300 C.3    16  THR16       0.0378
     32  N          6.2800   47.9010   33.2160 N.3    35  ASP35      -0.1239
     33  CA         5.4790   49.1080   33.0050 C.3    35  ASP35       0.1674
     34  C          4.0740   48.9970   33.5840 C.2    35  ASP35       0.2266
     35  O          3.4050   50.0090   33.7890 O.2    35  ASP35      -0.2867
     36  CB         5.3820   49.4510   31.5130 C.3    35  ASP35       0.1410
     37  CG         6.7010   49.9280   30.9290 C.2    35  ASP35       0.3668
     38  OD1        7.6450   50.1900   31.7030 O.co2  35  ASP35      -0.2456
     39  OD2        6.7850   50.0500   29.6850 O.co2  35  ASP35      -0.2456
     40  N          3.7890   50.7560   37.4120 N.3    38  PHE38      -0.1227
     41  CA         4.0830   52.1530   37.7100 C.3    38  PHE38       0.1736
     42  C          2.9850   52.6760   38.6280 C.2    38  PHE38       0.2595
     43  O          1.8200   52.2990   38.4900 O.2    38  PHE38      -0.2718
     44  CB         4.0820   52.9960   36.4310 C.3    38  PHE38       0.0547
     45  CG         5.4380   53.1850   35.8200 C.ar   38  PHE38      -0.0202
     46  CD1        5.7540   52.6030   34.5970 C.ar   38  PHE38      -0.0042
     47  CD2        6.3960   53.9660   36.4560 C.ar   38  PHE38      -0.0042
     48  CE1        7.0040   52.7970   34.0120 C.ar   38  PHE38      -0.0003
     49  CE2        7.6520   54.1660   35.8790 C.ar   38  PHE38      -0.0003
     50  CZ         7.9540   53.5790   34.6540 C.ar   38  PHE38      -0.0000
     51  N          3.3580   53.5380   39.5650 N.am   39  LYS39      -0.1980
     52  CA         2.3850   54.1300   40.4760 C.3    39  LYS39       0.1596
     53  C          1.6510   55.2210   39.7040 C.2    39  LYS39       0.2287
     54  O          2.1360   55.6930   38.6740 O.2    39  LYS39      -0.2864
     55  CB         3.0930   54.7490   41.6800 C.3    39  LYS39       0.0298
     56  CG         3.8730   53.7670   42.5280 C.3    39  LYS39       0.0038
     57  CD         4.6370   54.4890   43.6240 C.3    39  LYS39       0.0206
     58  CE         5.4120   53.5160   44.4920 C.3    39  LYS39       0.1093
     59  NZ         6.2050   54.2210   45.5360 N.3    39  LYS39      -0.1314
     60  N          9.9120   59.5410   37.4350 N.3    54  TYR54      -0.1227
     61  CA         9.4070   58.2650   36.9410 C.3    54  TYR54       0.1736
     62  C         10.4890   57.2230   36.6880 C.2    54  TYR54       0.2595
     63  O         10.2120   56.0260   36.7170 O.2    54  TYR54      -0.2718
     64  CB         8.6260   58.4600   35.6380 C.3    54  TYR54       0.0548
     65  CG         7.1470   58.7050   35.8150 C.ar   54  TYR54      -0.0200
     66  CD1        6.6060   59.9820   35.6660 C.ar   54  TYR54      -0.0009
     67  CD2        6.2830   57.6550   36.1210 C.ar   54  TYR54      -0.0009
     68  CE1        5.2360   60.2050   35.8130 C.ar   54  TYR54       0.0417
     69  CE2        4.9150   57.8650   36.2720 C.ar   54  TYR54       0.0417
     70  CZ         4.3980   59.1420   36.1140 C.ar   54  TYR54       0.1957
     71  OH         3.0430   59.3450   36.2430 O.3    54  TYR54      -0.2866
     72  N         11.7170   57.6680   36.4500 N.am   55  ASP55      -0.1974
     73  CA        12.7980   56.7400   36.1340 C.3    55  ASP55       0.1709
     74  C         13.6660   56.2650   37.2940 C.2    55  ASP55       0.2293
     75  O         14.8930   56.1830   37.1890 O.2    55  ASP55      -0.2864
     76  CB        13.6550   57.3440   35.0220 C.3    55  ASP55       0.1436
     77  CG        12.8730   57.5250   33.7350 C.2    55  ASP55       0.3671
     78  OD1       11.7970   58.1570   33.7770 O.co2  55  ASP55      -0.2456
     79  OD2       13.3250   57.0310   32.6830 O.co2  55  ASP55      -0.2456
     80  N         12.5530   48.5110   31.9910 N.3    86  PHE86      -0.1241
     81  CA        13.7240   49.3810   31.9750 C.3    86  PHE86       0.1605
     82  C         14.5230   49.4770   33.2710 C.2    86  PHE86       0.2264
     83  O         15.6210   50.0310   33.2680 O.2    86  PHE86      -0.2867
     84  CB        13.3230   50.8010   31.5460 C.3    86  PHE86       0.0534
     85  CG        12.7360   51.6390   32.6540 C.ar   86  PHE86      -0.0203
     86  CD1       13.2530   52.9030   32.9250 C.ar   86  PHE86      -0.0042
     87  CD2       11.6710   51.1750   33.4200 C.ar   86  PHE86      -0.0042
     88  CE1       12.7210   53.6920   33.9440 C.ar   86  PHE86      -0.0003
     89  CE2       11.1300   51.9570   34.4440 C.ar   86  PHE86      -0.0003
     90  CZ        11.6580   53.2170   34.7050 C.ar   86  PHE86      -0.0000
     91  N         12.4480   58.4550   21.5520 N.3   115  ARG115     -0.1245
     92  CA        11.5910   58.8090   22.6780 C.3   115  ARG115      0.1563
     93  C         10.5760   59.8900   22.3010 C.2   115  ARG115      0.2260
     94  O          9.4200   59.8440   22.7240 O.2   115  ARG115     -0.2867
     95  CB        12.4500   59.2940   23.8490 C.3   115  ARG115      0.0307
     96  CG        11.6630   59.7960   25.0560 C.3   115  ARG115      0.0489
     97  CD        11.3910   58.6990   26.0760 C.3   115  ARG115      0.2205
     98  NE        10.6520   59.2200   27.2240 N.pl3 115  ARG115     -0.0865
     99  CZ        10.5500   58.6110   28.4010 C.cat 115  ARG115      0.5346
    100  NH1       11.1430   57.4420   28.6110 N.pl3 115  ARG115      0.1354
    101  NH2        9.8540   59.1750   29.3800 N.pl3 115  ARG115      0.1354
    102  N          7.3190   58.8770   20.6780 N.3   118  ARG118     -0.1245
    103  CA         6.4200   58.0970   21.5130 C.3   118  ARG118      0.1563
    104  C          5.6440   58.9730   22.4870 C.2   118  ARG118      0.2260
    105  O          6.1500   59.9860   22.9680 O.2   118  ARG118     -0.2867
    106  CB         7.2140   57.0380   22.2770 C.3   118  ARG118      0.0307
    107  CG         6.3730   56.1580   23.1790 C.3   118  ARG118      0.0489
    108  CD         7.1950   55.0050   23.7090 C.3   118  ARG118      0.2205
    109  NE         6.4700   54.2150   24.6970 N.pl3 118  ARG118     -0.0865
    110  CZ         6.9790   53.1520   25.3090 C.cat 118  ARG118      0.5346
    111  NH1        8.2120   52.7560   25.0280 N.pl3 118  ARG118      0.1354
    112  NH2        6.2620   52.4940   26.2090 N.pl3 118  ARG118      0.1354
    113  N          3.6350   59.1710   26.0980 N.3   120  TYR120     -0.1227
    114  CA         3.4060   58.5610   27.4010 C.3   120  TYR120      0.1736
    115  C          2.2530   59.2680   28.1030 C.2   120  TYR120      0.2595
    116  O          1.7770   60.3080   27.6450 O.2   120  TYR120     -0.2718
    117  CB         4.6550   58.6590   28.2810 C.3   120  TYR120      0.0548
    118  CG         5.8260   57.8290   27.8080 C.ar  120  TYR120     -0.0200
    119  CD1        6.7290   58.3260   26.8700 C.ar  120  TYR120     -0.0009
    120  CD2        6.0320   56.5440   28.3040 C.ar  120  TYR120     -0.0009
    121  CE1        7.8170   57.5610   26.4420 C.ar  120  TYR120      0.0417
    122  CE2        7.1110   55.7730   27.8830 C.ar  120  TYR120      0.0417
    123  CZ         7.9990   56.2860   26.9560 C.ar  120  TYR120      0.1957
    124  OH         9.0760   55.5280   26.5590 O.3   120  TYR120     -0.2866
    125  N          1.8130   58.6950   29.2160 N.am  121  GLN121     -0.1966
    126  CA         0.7290   59.2660   30.0050 C.3   121  GLN121      0.1718
    127  C          1.1490   59.2740   31.4740 C.2   121  GLN121      0.2458
    128  O          1.1830   58.2290   32.1230 O.2   121  GLN121     -0.2730
    129  CB        -0.5490   58.4400   29.8270 C.3   121  GLN121      0.0407
    130  CG        -1.7180   58.8800   30.7070 C.3   121  GLN121      0.0908
    131  CD        -2.2490   60.2630   30.3630 C.2   121  GLN121      0.2608
    132  OE1       -3.1530   60.7720   31.0270 O.2   121  GLN121     -0.2717
    133  NE2       -1.6950   60.8750   29.3220 N.am  121  GLN121     -0.0878
    134  N          1.4750   60.4590   32.0180 N.am  122  PRO122     -0.2727
    135  CA         1.4700   61.7590   31.3390 C.3   122  PRO122      0.1402
    136  C          2.5470   61.8910   30.2640 C.2   122  PRO122      0.2269
    137  O          3.5530   61.1820   30.2890 O.2   122  PRO122     -0.2865
    138  CB         1.6810   62.7410   32.4850 C.3   122  PRO122      0.0296
    139  CG         2.5850   61.9750   33.3960 C.3   122  PRO122      0.0237
    140  CD         1.9450   60.6020   33.4080 C.3   122  PRO122      0.0939
    141  N          5.7050   63.3880   28.0600 N.3   124  ASP124     -0.1239
    142  CA         6.9850   63.9400   28.4840 C.3   124  ASP124      0.1674
    143  C          6.8960   65.4600   28.4880 C.2   124  ASP124      0.2266
    144  O          6.4470   66.0620   27.5120 O.2   124  ASP124     -0.2867
    145  CB         8.1090   63.5260   27.5290 C.3   124  ASP124      0.1410
    146  CG         8.5070   62.0710   27.6750 C.2   124  ASP124      0.3668
    147  OD1        8.0860   61.4220   28.6540 O.co2 124  ASP124     -0.2456
    148  OD2        9.2590   61.5840   26.8070 O.co2 124  ASP124     -0.2456
    149  N         12.3010   66.8520   29.1510 N.3   128  TYR128     -0.1241
    150  CA        12.2450   65.7200   30.0700 C.3   128  TYR128      0.1605
    151  C         13.3510   64.6930   29.8390 C.2   128  TYR128      0.2264
    152  O         13.8420   64.0810   30.7890 O.2   128  TYR128     -0.2867
    153  CB        10.8850   65.0280   29.9640 C.3   128  TYR128      0.0534
    154  CG        10.5850   64.0860   31.1080 C.ar  128  TYR128     -0.0201
    155  CD1       10.6180   64.5340   32.4270 C.ar  128  TYR128     -0.0009
    156  CD2       10.2280   62.7580   30.8710 C.ar  128  TYR128     -0.0009
    157  CE1       10.2980   63.6850   33.4870 C.ar  128  TYR128      0.0417
    158  CE2        9.9050   61.9000   31.9260 C.ar  128  TYR128      0.0417
    159  CZ         9.9400   62.3730   33.2260 C.ar  128  TYR128      0.1957
    160  OH         9.5940   61.5480   34.2700 O.3   128  TYR128     -0.2866
@<TRIPOS>BOND
     1   102   103    1
     2   103   106    1
     3   103   104    1
     4    91    92    1
     5    14    13    2
     6   106   107    1
     7    93    92    1
     8    93    94    2
     9    15    13   am
    10    11    10    2
    11   104   105    2
    12    13    12    1
    13    92    95    1
    14   107   108    1
    15    10     9    1
    16   108   109    1
    17    27    28    2
    18    27    26    1
    19    12     9    1
    20    95    96    1
    21    16    17    1
    22     9     8    1
    23   109   110    2
    24    26    25    1
    25    26    29    1
    26    25    18   am
    27   111   110    1
    28    96    97    1
    29    18    17    1
    30    18    19    2
    31    17    20    1
    32    29    31    1
    33    29    30    1
    34   110   112    1
    35     4     3    2
    36     8     3   am
    37    97    98    1
    38   113   114    1
    39     3     2    1
    40   121   119   ar
    41   121   123   ar
    42    20    21    1
    43   124   123    1
    44    21    22    1
    45   148   146   ar
    46   119   118   ar
    47   123   122   ar
    48    98    99    2
    49   114   115    1
    50   114   117    1
    51   144   143    2
    52     6     5    1
    53   145   146    1
    54   145   142    1
    55     7     5    1
    56     2     1    1
    57     2     5    1
    58    24    23    1
    59   116   115    2
    60   146   147   ar
    61   118   117    1
    62   118   120   ar
    63   122   120   ar
    64   141   142    1
    65    22    23    1
    66   115   125   am
    67    99   100    1
    68    99   101    1
    69   142   143    1
    70   149   150    1
    71   125   126    1
    72   133   131   am
    73    39    37   ar
    74   129   126    1
    75   129   130    1
    76   151   150    1
    77   151   152    2
    78   153   150    1
    79   153   154    1
    80   126   127    1
    81   136   137    2
    82   136   135    1
    83   131   130    1
    84   131   132    2
    85   156   154   ar
    86   156   158   ar
    87    37    36    1
    88    37    38   ar
    89   154   155   ar
    90   135   134    1
    91   135   138    1
    92   127   134   am
    93   127   128    2
    94    36    33    1
    95    84    81    1
    96    84    85    1
    97   158   159   ar
    98    81    80    1
    99    81    82    1
   100   134   140    1
   101   155   157   ar
   102   138   139    1
   103    85    86   ar
   104    85    87   ar
   105    79    77   ar
   106    86    88   ar
   107    33    32    1
   108    33    34    1
   109   159   157   ar
   110   159   160    1
   111    83    82    2
   112   139   140    1
   113    87    89   ar
   114    34    35    2
   115    77    78   ar
   116    77    76    1
   117    88    90   ar
   118    48    46   ar
   119    48    50   ar
   120    89    90   ar
   121    46    45   ar
   122    50    49   ar
   123    76    73    1
   124    64    65    1
   125    64    61    1
   126    66    68   ar
   127    66    65   ar
   128    68    70   ar
   129    65    67   ar
   130    45    44    1
   131    45    47   ar
   132    49    47   ar
   133    70    71    1
   134    70    69   ar
   135    67    69   ar
   136    73    72    1
   137    73    74    1
   138    44    41    1
   139    72    62   am
   140    62    63    2
   141    62    61    1
   142    61    60    1
   143    75    74    2
   144    40    41    1
   145    41    42    1
   146    43    42    2
   147    42    51   am
   148    54    53    2
   149    51    52    1
   150    53    52    1
   151    52    55    1
   152    55    56    1
   153    56    57    1
   154    57    58    1
   155    58    59    1
