@<TRIPOS>MOLECULE
tmp/2qgaB00.pdb
 117 109 0 0 0
SMALL
GASTEIGER

@<TRIPOS>ATOM
      1  N        -30.4430   57.9040    4.4400 N.3    81  GLU81      -0.1245
      2  CA       -29.1330   57.8480    3.8040 C.3    81  GLU81       0.1567
      3  C        -29.1770   58.1760    2.2990 C.2    81  GLU81       0.2260
      4  O        -28.2010   58.7110    1.7530 O.2    81  GLU81      -0.2867
      5  CB       -28.4460   56.5080    4.0470 C.3    81  GLU81       0.0388
      6  CG       -27.0140   56.4700    3.4890 C.3    81  GLU81       0.1160
      7  CD       -26.3720   55.0760    3.5520 C.2    81  GLU81       0.3649
      8  OE1      -27.0050   54.1730    4.1190 O.co2  81  GLU81      -0.2457
      9  OE2      -25.2370   54.8980    3.0410 O.co2  81  GLU81      -0.2457
     10  N        -26.3560   60.7870    1.7630 N.3    85  ASN85      -0.1225
     11  CA       -25.1720   60.0260    1.3250 C.3    85  ASN85       0.1785
     12  C        -24.1040   59.9740    2.4470 C.2    85  ASN85       0.2597
     13  O        -22.9020   60.0680    2.1880 O.2    85  ASN85      -0.2718
     14  CB       -24.5810   60.5340   -0.0180 C.3    85  ASN85       0.1169
     15  CG       -23.4930   59.5720   -0.6120 C.2    85  ASN85       0.2627
     16  OD1      -23.6050   58.3220   -0.5290 O.2    85  ASN85      -0.2716
     17  ND2      -22.4430   60.1640   -1.2260 N.am   85  ASN85      -0.0877
     18  N        -24.5770   59.8350    3.6890 N.am   86  HIS86      -0.1961
     19  CA       -23.7080   59.7440    4.8760 C.3    86  HIS86       0.1787
     20  C        -24.4400   58.8360    5.8450 C.2    86  HIS86       0.2620
     21  O        -25.5150   59.1840    6.3450 O.2    86  HIS86      -0.2715
     22  CB       -23.4130   61.1240    5.5300 C.3    86  HIS86       0.0785
     23  CG       -22.2240   61.1130    6.4650 C.ar   86  HIS86       0.0821
     24  ND1      -22.1670   60.3170    7.5940 N.ar   86  HIS86      -0.2267
     25  CD2      -21.0520   61.8070    6.4390 C.ar   86  HIS86       0.1154
     26  CE1      -21.0240   60.5280    8.2290 C.ar   86  HIS86       0.1986
     27  NE2      -20.3290   61.4280    7.5500 N.ar   86  HIS86      -0.2212
     28  N        -23.8570   57.6640    6.0810 N.am   87  ASP87      -0.1971
     29  CA       -24.5650   56.5790    6.7710 C.3    87  ASP87       0.1709
     30  C        -24.7760   56.8560    8.2730 C.2    87  ASP87       0.2293
     31  O        -25.8770   56.6750    8.7820 O.2    87  ASP87      -0.2864
     32  CB       -23.9470   55.1710    6.4640 C.3    87  ASP87       0.1436
     33  CG       -22.4030   55.0720    6.7220 C.2    87  ASP87       0.3671
     34  OD1      -21.8470   53.9420    6.5970 O.co2  87  ASP87      -0.2456
     35  OD2      -21.7390   56.0810    7.0520 O.co2  87  ASP87      -0.2456
     36  N        -17.5250   62.4840   16.4970 N.3   119  THR119     -0.1203
     37  CA       -17.2830   62.3100   15.0860 C.3   119  THR119      0.1994
     38  C        -17.8890   60.9480   14.7050 C.2   119  THR119      0.2619
     39  O        -18.1480   60.1160   15.5760 O.2   119  THR119     -0.2717
     40  CB       -15.7960   62.4140   14.7400 C.3   119  THR119      0.1784
     41  OG1      -15.6520   62.6010   13.3170 O.3   119  THR119     -0.2211
     42  CG2      -15.0200   61.1490   15.1680 C.3   119  THR119      0.0376
     43  N        -18.1680   60.7220   13.4200 N.am  120  SER120     -0.1937
     44  CA       -18.8500   59.4670   12.9710 C.3   120  SER120      0.2055
     45  C        -18.0870   58.2110   13.3990 C.2   120  SER120      0.2642
     46  O        -18.7100   57.2150   13.8060 O.2   120  SER120     -0.2714
     47  CB       -18.9660   59.4370   11.4250 C.3   120  SER120      0.2130
     48  OG       -19.8510   60.4420   10.9370 O.3   120  SER120     -0.2179
     49  N        -16.7460   58.2590   13.2690 N.am  121  GLU121     -0.1976
     50  CA       -15.8890   57.1560   13.7000 C.3   121  GLU121      0.1602
     51  C        -15.9830   56.8620   15.1930 C.2   121  GLU121      0.2287
     52  O        -15.7220   55.7420   15.5950 O.2   121  GLU121     -0.2864
     53  CB       -14.4340   57.3790   13.3050 C.3   121  GLU121      0.0415
     54  CG       -14.2610   57.2520   11.8200 C.3   121  GLU121      0.1163
     55  CD       -14.5410   55.8610   11.3220 C.2   121  GLU121      0.3649
     56  OE1      -14.1830   54.8680   12.0440 O.co2 121  GLU121     -0.2457
     57  OE2      -15.1170   55.7610   10.2160 O.co2 121  GLU121     -0.2457
     58  N        -18.8870   54.4480   14.9470 N.3   124  ASN124     -0.1240
     59  CA       -18.5140   53.2530   14.1750 C.3   124  ASN124      0.1653
     60  C        -17.5910   52.3180   14.9420 C.2   124  ASN124      0.2266
     61  O        -17.7580   51.0900   14.8990 O.2   124  ASN124     -0.2867
     62  CB       -17.7700   53.6260   12.8400 C.3   124  ASN124      0.1155
     63  CG       -18.6870   54.1880   11.7680 C.2   124  ASN124      0.2627
     64  OD1      -19.8830   53.9130   11.7760 O.2   124  ASN124     -0.2716
     65  ND2      -18.1180   54.9870   10.8160 N.am  124  ASN124     -0.0877
     66  N         -8.7570   60.6110   13.6930 N.3   245  GLN245     -0.1245
     67  CA       -10.1850   60.4620   13.5180 C.3   245  GLN245      0.1566
     68  C        -10.5970   58.9680   13.6700 C.2   245  GLN245      0.2260
     69  O        -11.7170   58.6570   14.0550 O.2   245  GLN245     -0.2867
     70  CB       -10.6460   61.0370   12.1880 C.3   245  GLN245      0.0367
     71  CG       -12.1000   60.8180   11.9050 C.3   245  GLN245      0.0905
     72  CD       -12.6240   61.6600   10.7410 C.2   245  GLN245      0.2608
     73  OE1      -12.8110   61.1620    9.6440 O.2   245  GLN245     -0.2717
     74  NE2      -12.8700   62.9340   10.9940 N.am  245  GLN245     -0.0878
     75  N         -6.7810   60.7970    8.6850 N.3   328  ARG328     -0.1245
     76  CA        -7.3580   59.5330    8.1260 C.3   328  ARG328      0.1563
     77  C         -7.7240   59.6960    6.6320 C.2   328  ARG328      0.2260
     78  O         -8.0150   60.8080    6.1630 O.2   328  ARG328     -0.2867
     79  CB        -8.5820   58.9960    8.8930 C.3   328  ARG328      0.0307
     80  CG        -9.8800   59.8350    8.7130 C.3   328  ARG328      0.0489
     81  CD       -10.8080   59.3360    7.5440 C.3   328  ARG328      0.2205
     82  NE       -11.1700   57.9170    7.6550 N.pl3 328  ARG328     -0.0865
     83  CZ       -12.2470   57.4300    8.2840 C.cat 328  ARG328      0.5346
     84  NH1      -13.0880   58.2420    8.9050 N.pl3 328  ARG328      0.1354
     85  NH2      -12.4980   56.1120    8.2810 N.pl3 328  ARG328      0.1354
     86  N        -10.4790   57.5490    3.9330 N.3   330  LEU330     -0.1245
     87  CA       -11.6630   56.7380    4.1110 C.3   330  LEU330      0.1561
     88  C        -11.5750   55.3430    3.5390 C.2   330  LEU330      0.2260
     89  O        -12.5320   54.5860    3.6160 O.2   330  LEU330     -0.2867
     90  CB       -12.8960   57.4700    3.5600 C.3   330  LEU330      0.0270
     91  CG       -14.3160   56.9560    3.9210 C.3   330  LEU330      0.0019
     92  CD1      -14.6660   57.1990    5.3800 C.3   330  LEU330      0.0001
     93  CD2      -15.2960   57.6550    3.0200 C.3   330  LEU330      0.0001
     94  N        -12.9100   52.2770    5.6160 N.3   333  SER333     -0.1202
     95  CA       -14.3180   52.0280    5.8600 C.3   333  SER333      0.2020
     96  C        -14.8450   50.8250    5.0430 C.2   333  SER333      0.2619
     97  O        -15.4850   49.9110    5.6150 O.2   333  SER333     -0.2717
     98  CB       -15.1160   53.2870    5.5900 C.3   333  SER333      0.2103
     99  OG       -16.4990   52.9900    5.6230 O.3   333  SER333     -0.2182
    100  N        -14.5460   50.7510    3.7380 N.am  334  THR334     -0.1952
    101  CA       -15.1140   49.6250    2.9930 C.3   334  THR334      0.1897
    102  C        -14.4310   48.3340    3.3480 C.2   334  THR334      0.2313
    103  O        -15.0450   47.2770    3.2350 O.2   334  THR334     -0.2863
    104  CB       -14.8460   49.5380    1.4580 C.3   334  THR334      0.1794
    105  OG1      -13.7450   50.3190    0.9760 O.3   334  THR334     -0.2208
    106  CG2      -16.0640   49.4070    0.6570 C.3   334  THR334      0.0378
    107  N        -15.9610   46.5850    6.2710 N.3   337  ARG337     -0.1245
    108  CA       -17.2490   45.9360    5.9940 C.3   337  ARG337      0.1563
    109  C        -17.1090   44.4750    5.6070 C.2   337  ARG337      0.2260
    110  O        -18.0980   43.7910    5.4810 O.2   337  ARG337     -0.2867
    111  CB       -17.9850   46.6590    4.8820 C.3   337  ARG337      0.0307
    112  CG       -18.3350   48.0870    5.2330 C.3   337  ARG337      0.0489
    113  CD       -19.1580   48.6920    4.1180 C.3   337  ARG337      0.2205
    114  NE       -19.1630   50.1430    4.2470 N.pl3 337  ARG337     -0.0865
    115  CZ       -20.0610   50.8280    4.9490 C.cat 337  ARG337      0.5346
    116  NH1      -19.9890   52.1510    5.0000 N.pl3 337  ARG337      0.1354
    117  NH2      -21.0600   50.1880    5.5710 N.pl3 337  ARG337      0.1354
@<TRIPOS>BOND
     1    17    15   am
     2    15    16    2
     3    15    14    1
     4    14    11    1
     5   106   104    1
     6   105   104    1
     7    11    10    1
     8    11    12    1
     9   104   101    1
    10     4     3    2
    11    13    12    2
    12     3     2    1
    13    12    18   am
    14   101   102    1
    15   101   100    1
    16    93    91    1
    17     9     7   ar
    18   103   102    2
    19     6     7    1
    20     6     5    1
    21    88    89    2
    22    88    87    1
    23     7     8   ar
    24    90    91    1
    25    90    87    1
    26    18    19    1
    27   100    96   am
    28     2     5    1
    29     2     1    1
    30    91    92    1
    31    86    87    1
    32   113   114    1
    33   113   112    1
    34   114   115    2
    35    19    22    1
    36    19    20    1
    37   111   112    1
    38   111   108    1
    39   115   116    1
    40   115   117    1
    41    96    97    2
    42    96    95    1
    43   110   109    2
    44    22    23    1
    45    98    99    1
    46    98    95    1
    47   109   108    1
    48    94    95    1
    49    20    28   am
    50    20    21    2
    51   108   107    1
    52    28    29    1
    53    78    77    2
    54    25    23   ar
    55    25    27   ar
    56    32    33    1
    57    32    29    1
    58    23    24   ar
    59    34    33   ar
    60    77    76    1
    61    33    35   ar
    62    29    30    1
    63    81    82    1
    64    81    80    1
    65    27    26   ar
    66    24    26   ar
    67    82    83    2
    68    76    75    1
    69    76    79    1
    70    30    31    2
    71    85    83    1
    72    83    84    1
    73    80    79    1
    74    73    72    2
    75    57    55   ar
    76    72    74   am
    77    72    71    1
    78    65    63   am
    79    48    47    1
    80    55    54    1
    81    55    56   ar
    82    47    44    1
    83    63    64    2
    84    63    62    1
    85    54    53    1
    86    71    70    1
    87    70    67    1
    88    62    59    1
    89    44    45    1
    90    44    43    1
    91    49    45   am
    92    49    50    1
    93    53    50    1
    94    41    40    1
    95    45    46    2
    96    43    38   am
    97    67    68    1
    98    67    66    1
    99    68    69    2
   100    50    51    1
   101    59    60    1
   102    59    58    1
   103    38    37    1
   104    38    39    2
   105    40    37    1
   106    40    42    1
   107    61    60    2
   108    37    36    1
   109    51    52    2
