@<TRIPOS>MOLECULE
tmp/2qgcB00.pdb
 86 78 0 0 0
SMALL
GASTEIGER

@<TRIPOS>ATOM
      1  N         -2.0050  -11.1510  -32.7430 N.3     3  MET3       -0.1245
      2  CA        -0.7370  -10.4040  -32.8310 C.3     3  MET3        0.1570
      3  C         -0.3110  -10.0570  -31.4270 C.2     3  MET3        0.2261
      4  O         -1.1390   -9.8890  -30.5270 O.2     3  MET3       -0.2867
      5  CB        -0.8410   -9.1000  -33.6650 C.3     3  MET3        0.0387
      6  CG         0.5100   -8.3240  -33.9840 C.3     3  MET3        0.0595
      7  SD         0.8810   -7.0130  -32.7260 S.3     3  MET3       -0.1393
      8  CE        -0.1330   -5.6520  -33.2620 C.3     3  MET3        0.0692
      9  N          2.3240   -7.5050  -29.2480 N.3     5  LYS5       -0.1245
     10  CA         3.0800   -6.2630  -29.3280 C.3     5  LYS5        0.1561
     11  C          3.7460   -6.0410  -27.9780 C.2     5  LYS5        0.2260
     12  O          3.0600   -6.1330  -26.9480 O.2     5  LYS5       -0.2867
     13  CB         2.1400   -5.0960  -29.6680 C.3     5  LYS5        0.0271
     14  CG         2.8960   -3.7470  -29.6940 C.3     5  LYS5        0.0035
     15  CD         2.3480   -2.6630  -30.5810 C.3     5  LYS5        0.0206
     16  CE         3.4310   -1.5560  -30.8800 C.3     5  LYS5        0.1093
     17  NZ         4.2550   -1.6020  -32.1270 N.3     5  LYS5       -0.1314
     18  N          6.4270   -3.5320  -25.7030 N.3     7  LEU7       -0.1245
     19  CA         7.0350   -2.2220  -25.5590 C.3     7  LEU7        0.1561
     20  C          7.9180   -2.1630  -24.3060 C.2     7  LEU7        0.2260
     21  O          7.6830   -2.8640  -23.3290 O.2     7  LEU7       -0.2867
     22  CB         5.9630   -1.1470  -25.4120 C.3     7  LEU7        0.0270
     23  CG         5.0360   -0.9750  -26.6100 C.3     7  LEU7        0.0019
     24  CD1        3.9120   -0.0170  -26.2510 C.3     7  LEU7        0.0001
     25  CD2        5.7830   -0.4990  -27.8500 C.3     7  LEU7        0.0001
     26  N          6.6880   -6.1540  -32.6880 N.3    44  GLU44      -0.1245
     27  CA         5.5020   -6.8960  -33.0500 C.3    44  GLU44       0.1567
     28  C          5.8220   -8.2740  -33.5640 C.2    44  GLU44       0.2260
     29  O          6.9120   -8.5540  -34.1240 O.2    44  GLU44      -0.2867
     30  CB         4.7300   -6.1360  -34.1570 C.3    44  GLU44       0.0388
     31  CG         4.1440   -4.8150  -33.6230 C.3    44  GLU44       0.1160
     32  CD         3.3050   -4.0210  -34.5970 C.2    44  GLU44       0.3649
     33  OE1        3.1350   -4.4580  -35.7350 O.co2  44  GLU44      -0.2457
     34  OE2        2.8270   -2.9390  -34.1550 O.co2  44  GLU44      -0.2457
     35  N         -5.1380   -8.5060  -30.2910 N.3    96  THR96      -0.1218
     36  CA        -3.7980   -8.0040  -30.0650 C.3    96  THR96       0.1862
     37  C         -3.5530   -8.1040  -28.5830 C.2    96  THR96       0.2287
     38  O         -4.2920   -7.5410  -27.7770 O.2    96  THR96      -0.2866
     39  CB        -3.6340   -6.5480  -30.5250 C.3    96  THR96       0.1770
     40  OG1       -3.8670   -6.5040  -31.9380 O.3    96  THR96      -0.2211
     41  CG2       -2.2830   -6.0360  -30.1780 C.3    96  THR96       0.0375
     42  N         -0.9510   -6.9050  -25.9500 N.3    98  ALA98      -0.1231
     43  CA         0.1160   -5.9380  -25.7990 C.3    98  ALA98       0.1694
     44  C          0.7000   -6.0110  -24.3950 C.2    98  ALA98       0.2592
     45  O         -0.0630   -6.2150  -23.4220 O.2    98  ALA98      -0.2718
     46  CB        -0.3800   -4.5080  -26.0730 C.3    98  ALA98       0.0304
     47  N          2.0030   -5.8340  -24.2940 N.am   99  ALA99      -0.1966
     48  CA         2.6980   -5.8300  -23.0370 C.3    99  ALA99       0.1728
     49  C          3.6560   -4.6710  -22.9900 C.2    99  ALA99       0.2616
     50  O          4.3810   -4.4400  -23.9460 O.2    99  ALA99      -0.2715
     51  CB         3.4300   -7.1530  -22.7870 C.3    99  ALA99       0.0334
     52  N          3.6960   -3.9920  -21.8500 N.am  100  LEU100     -0.1977
     53  CA         4.5690   -2.8600  -21.5670 C.3   100  LEU100      0.1596
     54  C          5.4620   -3.2440  -20.4190 C.2   100  LEU100      0.2287
     55  O          4.9510   -3.5030  -19.3200 O.2   100  LEU100     -0.2864
     56  CB         3.7440   -1.6040  -21.2520 C.3   100  LEU100      0.0297
     57  CG         4.5200   -0.3600  -20.8490 C.3   100  LEU100      0.0022
     58  CD1        5.4750    0.1100  -21.9820 C.3   100  LEU100      0.0001
     59  CD2        3.5400    0.7830  -20.4940 C.3   100  LEU100      0.0001
     60  N          2.6650   -4.2790  -17.5740 N.3   107  SER107     -0.1202
     61  CA         1.2470   -4.1500  -17.8040 C.3   107  SER107      0.2020
     62  C          0.8950   -4.8560  -19.1100 C.2   107  SER107      0.2619
     63  O          1.7150   -4.9500  -20.0320 O.2   107  SER107     -0.2717
     64  CB         0.8170   -2.6780  -17.7980 C.3   107  SER107      0.2103
     65  OG         1.5170   -1.9130  -18.7660 O.3   107  SER107     -0.2182
     66  N         -0.3040   -5.4070  -19.1510 N.am  108  THR108     -0.1938
     67  CA        -0.7590   -6.0610  -20.3610 C.3   108  THR108      0.2028
     68  C         -2.2020   -5.7210  -20.6160 C.2   108  THR108      0.2642
     69  O         -2.9760   -5.5970  -19.6820 O.2   108  THR108     -0.2714
     70  CB        -0.4900   -7.5760  -20.3150 C.3   108  THR108      0.1808
     71  OG1       -0.7690   -8.1700  -21.5830 O.3   108  THR108     -0.2208
     72  CG2       -1.3220   -8.2700  -19.2550 C.3   108  THR108      0.0379
     73  N         -2.5800   -5.6290  -21.8800 N.am  109  THR109     -0.1950
     74  CA        -3.9510   -5.4100  -22.2780 C.3   109  THR109      0.1897
     75  C         -4.2520   -6.2350  -23.5040 C.2   109  THR109      0.2313
     76  O         -3.3460   -6.7190  -24.1810 O.2   109  THR109     -0.2863
     77  CB        -4.2880   -3.9190  -22.5000 C.3   109  THR109      0.1794
     78  OG1       -5.7180   -3.7430  -22.4350 O.3   109  THR109     -0.2208
     79  CG2       -3.6920   -3.3570  -23.7490 C.3   109  THR109      0.0378
     80  N         -6.5700   -5.9400  -27.0300 N.3   111  VAL111     -0.1245
     81  CA        -7.3570   -5.1310  -27.9390 C.3   111  VAL111      0.1561
     82  C         -8.0180   -6.1060  -28.8940 C.2   111  VAL111      0.2260
     83  O         -7.3210   -6.7910  -29.6820 O.2   111  VAL111     -0.2867
     84  CB        -6.5100   -4.0930  -28.7110 C.3   111  VAL111      0.0252
     85  CG1       -7.4410   -3.0900  -29.4590 C.3   111  VAL111      0.0019
     86  CG2       -5.5760   -3.3660  -27.7700 C.3   111  VAL111      0.0019
@<TRIPOS>BOND
     1    33    32   ar
     2    32    34   ar
     3    32    31    1
     4    30    31    1
     5    30    27    1
     6    29    28    2
     7     6     5    1
     8     6     7    1
     9     5     2    1
    10    28    27    1
    11     8     7    1
    12    27    26    1
    13     2     1    1
    14     2     3    1
    15    17    16    1
    16    40    39    1
    17     3     4    2
    18    16    15    1
    19    15    14    1
    20    39    41    1
    21    39    36    1
    22    35    36    1
    23    36    37    1
    24    14    13    1
    25    83    82    2
    26    13    10    1
    27    85    84    1
    28    10     9    1
    29    10    11    1
    30    82    81    1
    31    84    81    1
    32    84    86    1
    33    37    38    2
    34    11    12    2
    35    81    80    1
    36    25    23    1
    37    23    24    1
    38    23    22    1
    39    46    43    1
    40    42    43    1
    41    43    44    1
    42    18    19    1
    43    19    22    1
    44    19    20    1
    45    44    47   am
    46    44    45    2
    47    20    21    2
    48    47    48    1
    49    76    75    2
    50    50    49    2
    51    79    77    1
    52    75    74    1
    53    48    49    1
    54    48    51    1
    55    49    52   am
    56    77    78    1
    57    77    74    1
    58    74    73    1
    59    58    57    1
    60    73    68   am
    61    52    53    1
    62    71    70    1
    63    53    56    1
    64    53    54    1
    65    56    57    1
    66    57    59    1
    67    68    67    1
    68    68    69    2
    69    54    55    2
    70    67    70    1
    71    67    66    1
    72    70    72    1
    73    63    62    2
    74    66    62   am
    75    62    61    1
    76    65    64    1
    77    61    64    1
    78    61    60    1
