@<TRIPOS>MOLECULE
tmp/2qgdA00.pdb
 69 63 0 0 0
SMALL
GASTEIGER

@<TRIPOS>ATOM
      1  N         -1.1220   -7.7070   -3.0190 N.3     5  LYS5       -0.1245
      2  CA        -2.1160   -6.6290   -2.9580 C.3     5  LYS5        0.1561
      3  C         -2.8050   -6.4920   -4.3240 C.2     5  LYS5        0.2260
      4  O         -2.0990   -6.4780   -5.3250 O.2     5  LYS5       -0.2867
      5  CB        -1.4980   -5.3150   -2.5720 C.3     5  LYS5        0.0271
      6  CG        -2.5040   -4.1770   -2.3580 C.3     5  LYS5        0.0035
      7  CD        -1.8620   -3.0050   -1.6770 C.3     5  LYS5        0.0206
      8  CE        -2.9140   -1.9290   -1.4400 C.3     5  LYS5        0.1093
      9  NZ        -2.3350   -0.9110   -0.4560 N.3     5  LYS5       -0.1314
     10  N         -5.8090   -4.3520   -6.5490 N.3     7  LEU7       -0.1245
     11  CA        -6.6780   -3.1620   -6.7000 C.3     7  LEU7        0.1561
     12  C         -7.5700   -3.2990   -7.9460 C.2     7  LEU7        0.2260
     13  O         -7.1690   -3.9220   -8.9450 O.2     7  LEU7       -0.2867
     14  CB        -5.7840   -1.8890   -6.8310 C.3     7  LEU7        0.0270
     15  CG        -4.9360   -1.6030   -5.5880 C.3     7  LEU7        0.0019
     16  CD1       -4.0500   -0.3330   -5.8500 C.3     7  LEU7        0.0001
     17  CD2       -5.7410   -1.4660   -4.2710 C.3     7  LEU7        0.0001
     18  N          6.5110   -7.7720   -2.0510 N.3    96  THR96      -0.1218
     19  CA         5.1030   -7.4020   -2.2770 C.3    96  THR96       0.1862
     20  C          4.8270   -7.5090   -3.7690 C.2    96  THR96       0.2287
     21  O          5.5320   -6.9090   -4.5780 O.2    96  THR96      -0.2866
     22  CB         4.7870   -5.9710   -1.7920 C.3    96  THR96       0.1770
     23  OG1        5.0450   -5.9220   -0.3860 O.3    96  THR96      -0.2211
     24  CG2        3.3350   -5.5630   -2.0850 C.3    96  THR96       0.0375
     25  N          2.0200   -6.6270   -6.3530 N.3    98  ALA98      -0.1231
     26  CA         0.8100   -5.7830   -6.5000 C.3    98  ALA98       0.1694
     27  C          0.2530   -5.9740   -7.9050 C.2    98  ALA98       0.2592
     28  O          1.0440   -6.0970   -8.8820 O.2    98  ALA98      -0.2718
     29  CB         1.1470   -4.3310   -6.2750 C.3    98  ALA98       0.0304
     30  N         -1.0770   -5.9970   -8.0060 N.am   99  ALA99      -0.1966
     31  CA        -1.7360   -6.0970   -9.2790 C.3    99  ALA99       0.1728
     32  C         -2.8850   -5.1270   -9.3110 C.2    99  ALA99       0.2616
     33  O         -3.6630   -5.0460   -8.3510 O.2    99  ALA99      -0.2715
     34  CB        -2.2150   -7.4770   -9.5240 C.3    99  ALA99       0.0334
     35  N         -3.0340   -4.4550  -10.4670 N.am  100  LEU100     -0.1977
     36  CA        -4.1220   -3.5000  -10.7330 C.3   100  LEU100      0.1596
     37  C         -4.9450   -4.0810  -11.8870 C.2   100  LEU100      0.2287
     38  O         -4.4330   -4.2900  -12.9880 O.2   100  LEU100     -0.2864
     39  CB        -3.5590   -2.1620  -11.1100 C.3   100  LEU100      0.0297
     40  CG        -4.5810   -1.0940  -11.5070 C.3   100  LEU100      0.0022
     41  CD1       -5.4870   -0.6980  -10.3410 C.3   100  LEU100      0.0001
     42  CD2       -3.7820    0.1440  -12.0410 C.3   100  LEU100      0.0001
     43  N         -2.0020   -4.7470  -14.6720 N.3   107  SER107     -0.1202
     44  CA        -0.6500   -4.2740  -14.4320 C.3   107  SER107      0.2020
     45  C         -0.1320   -4.9190  -13.1580 C.2   107  SER107      0.2619
     46  O         -0.8980   -5.0380  -12.1850 O.2   107  SER107     -0.2717
     47  CB        -0.6790   -2.7640  -14.2390 C.3   107  SER107      0.2103
     48  OG         0.6290   -2.2560  -14.1810 O.3   107  SER107     -0.2182
     49  N          1.1250   -5.3120  -13.1410 N.am  108  THR108     -0.1938
     50  CA         1.6870   -5.8920  -11.9260 C.3   108  THR108      0.2028
     51  C          3.0600   -5.3120  -11.6950 C.2   108  THR108      0.2642
     52  O          3.8330   -5.0680  -12.6610 O.2   108  THR108     -0.2714
     53  CB         1.7240   -7.4430  -11.9700 C.3   108  THR108      0.1808
     54  OG1        2.1370   -7.9760  -10.7220 O.3   108  THR108     -0.2208
     55  CG2        2.6260   -7.9860  -13.0380 C.3   108  THR108      0.0379
     56  N          3.4010   -5.1350  -10.4240 N.am  109  THR109     -0.1950
     57  CA         4.7290   -4.6890  -10.0300 C.3   109  THR109      0.1897
     58  C          5.1610   -5.4380   -8.7830 C.2   109  THR109      0.2313
     59  O          4.3500   -6.0840   -8.1050 O.2   109  THR109     -0.2863
     60  CB         4.8580   -3.1580   -9.8460 C.3   109  THR109      0.1794
     61  OG1        6.2530   -2.7830   -9.8790 O.3   109  THR109     -0.2208
     62  CG2        4.2300   -2.6730   -8.5920 C.3   109  THR109      0.0378
     63  N          7.6300   -4.9790   -5.2440 N.3   111  VAL111     -0.1245
     64  CA         8.4410   -4.1770   -4.3030 C.3   111  VAL111      0.1561
     65  C          9.2280   -5.1660   -3.4500 C.2   111  VAL111      0.2260
     66  O          8.6320   -6.0050   -2.7500 O.2   111  VAL111     -0.2867
     67  CB         7.5520   -3.2870   -3.4220 C.3   111  VAL111      0.0252
     68  CG1        8.4370   -2.3890   -2.4920 C.3   111  VAL111      0.0019
     69  CG2        6.6190   -2.4680   -4.3180 C.3   111  VAL111      0.0019
@<TRIPOS>BOND
     1    43    44    1
     2    44    47    1
     3    44    45    1
     4    47    48    1
     5    45    49   am
     6    45    46    2
     7    49    50    1
     8    55    53    1
     9    38    37    2
    10    52    51    2
    11    42    40    1
    12    53    50    1
    13    53    54    1
    14    50    51    1
    15    37    36    1
    16    51    56   am
    17    40    39    1
    18    40    41    1
    19    39    36    1
    20    36    35    1
    21    35    32   am
    22    56    57    1
    23    57    60    1
    24    57    58    1
    25    61    60    1
    26    60    62    1
    27    34    31    1
    28    32    31    1
    29    32    33    2
    30    31    30    1
    31    13    12    2
    32    28    27    2
    33    58    59    2
    34    30    27   am
    35    12    11    1
    36    27    26    1
    37    14    11    1
    38    14    15    1
    39    11    10    1
    40    26    25    1
    41    26    29    1
    42    16    15    1
    43    15    17    1
    44     4     3    2
    45    63    64    1
    46    21    20    2
    47     3     2    1
    48    69    67    1
    49    64    65    1
    50    64    67    1
    51    20    19    1
    52    65    66    2
    53    67    68    1
    54     1     2    1
    55     2     5    1
    56     5     6    1
    57     6     7    1
    58    19    18    1
    59    19    22    1
    60    24    22    1
    61    22    23    1
    62     7     8    1
    63     8     9    1
