@<TRIPOS>MOLECULE
tmp/2qghA00.pdb
 208 198 0 0 0
SMALL
GASTEIGER

@<TRIPOS>ATOM
      1  N        -25.9710   17.9970   13.7300 N.3    42  ALA42      -0.1245
      2  CA       -25.7880   16.5740   13.4720 C.3    42  ALA42       0.1562
      3  C        -26.5720   15.7740   14.5170 C.2    42  ALA42       0.2260
      4  O        -26.1390   15.6440   15.6650 O.2    42  ALA42      -0.2867
      5  CB       -24.3070   16.2270   13.5280 C.3    42  ALA42       0.0290
      6  N        -27.0240   12.6520   15.0580 N.3    44  LYS44      -0.1245
      7  CA       -26.3100   11.5400   15.6670 C.3    44  LYS44       0.1561
      8  C        -25.8320   11.8980   17.0760 C.2    44  LYS44       0.2260
      9  O        -25.7390   11.0300   17.9380 O.2    44  LYS44      -0.2867
     10  CB       -25.1150   11.1620   14.7970 C.3    44  LYS44       0.0271
     11  CG       -24.1510   12.3160   14.5520 C.3    44  LYS44       0.0035
     12  CD       -23.0660   11.9280   13.5730 C.3    44  LYS44       0.0206
     13  CE       -23.6610   11.6060   12.2060 C.3    44  LYS44       0.1093
     14  NZ       -24.3490   12.7860   11.6110 N.3    44  LYS44      -0.1314
     15  N        -28.3270   17.7130   10.0330 N.3    63  ASP63      -0.1239
     16  CA       -27.4370   16.8300    9.2820 C.3    63  ASP63       0.1674
     17  C        -27.8810   15.4340    9.7000 C.2    63  ASP63       0.2266
     18  O        -27.7260   15.0440   10.8560 O.2    63  ASP63      -0.2867
     19  CB       -25.9780   17.0670    9.6630 C.3    63  ASP63       0.1410
     20  CG       -25.0780   15.9110    9.2710 C.2    63  ASP63       0.3668
     21  OD1      -25.1690   15.4390    8.1150 O.co2  63  ASP63      -0.2456
     22  OD2      -24.2690   15.4770   10.1230 O.co2  63  ASP63      -0.2456
     23  N        -26.2980   12.6510    4.7450 N.3    86  SER86      -0.1217
     24  CA       -24.9960   12.0290    4.5080 C.3    86  SER86       0.1889
     25  C        -25.1510   10.5290    4.7180 C.2    86  SER86       0.2288
     26  O        -26.2270   10.0600    5.0780 O.2    86  SER86      -0.2866
     27  CB       -23.9490   12.5710    5.4860 C.3    86  SER86       0.2089
     28  OG       -23.3840   13.7880    5.0170 O.3    86  SER86      -0.2183
     29  N        -18.9730   14.3780   -1.0680 N.3   133  ARG133     -0.1245
     30  CA       -18.0130   14.4080    0.0260 C.3   133  ARG133      0.1563
     31  C        -16.6420   13.9600   -0.4540 C.2   133  ARG133      0.2260
     32  O        -16.4940   12.8610   -0.9830 O.2   133  ARG133     -0.2867
     33  CB       -18.4820   13.4890    1.1580 C.3   133  ARG133      0.0307
     34  CG       -17.5510   13.4640    2.3530 C.3   133  ARG133      0.0489
     35  CD       -18.1150   12.6360    3.5020 C.3   133  ARG133      0.2205
     36  NE       -17.2390   12.6860    4.6680 N.pl3 133  ARG133     -0.0865
     37  CZ       -17.4920   12.0970    5.8350 C.cat 133  ARG133      0.5346
     38  NH1      -18.6110   11.4020    6.0150 N.pl3 133  ARG133      0.1354
     39  NH2      -16.6160   12.2030    6.8280 N.pl3 133  ARG133      0.1354
     40  N        -11.2370    5.9830   16.0020 N.3   145  TYR145     -0.1227
     41  CA       -12.6440    5.6380   15.7800 C.3   145  TYR145      0.1736
     42  C        -13.5280    6.7810   15.2840 C.2   145  TYR145      0.2595
     43  O        -14.5510    6.5450   14.6400 O.2   145  TYR145     -0.2718
     44  CB       -13.2590    5.0450   17.0530 C.3   145  TYR145      0.0548
     45  CG       -12.8980    3.5940   17.3080 C.ar  145  TYR145     -0.0200
     46  CD1      -13.4630    2.8980   18.3770 C.ar  145  TYR145     -0.0009
     47  CD2      -11.9840    2.9180   16.4910 C.ar  145  TYR145     -0.0009
     48  CE1      -13.1280    1.5710   18.6340 C.ar  145  TYR145      0.0417
     49  CE2      -11.6410    1.5850   16.7410 C.ar  145  TYR145      0.0417
     50  CZ       -12.2180    0.9210   17.8160 C.ar  145  TYR145      0.1957
     51  OH       -11.8820   -0.3860   18.0880 O.3   145  TYR145     -0.2866
     52  N        -13.1420    8.0120   15.5940 N.am  146  ILE146     -0.1980
     53  CA       -13.9060    9.1750   15.1680 C.3   146  ILE146      0.1595
     54  C        -13.0730   10.0780   14.2540 C.2   146  ILE146      0.2287
     55  O        -13.3680   11.2600   14.0900 O.2   146  ILE146     -0.2864
     56  CB       -14.3960    9.9940   16.3810 C.3   146  ILE146      0.0276
     57  CG1      -13.1940   10.5340   17.1620 C.3   146  ILE146      0.0022
     58  CG2      -15.2690    9.1200   17.2800 C.3   146  ILE146      0.0022
     59  CD1      -13.5600   11.5000   18.2630 C.3   146  ILE146      0.0001
     60  N        -12.0560   10.6180   10.5220 N.3   148  THR148     -0.1218
     61  CA       -12.5890   10.1780    9.2390 C.3   148  THR148      0.1862
     62  C        -12.0230   10.8430    7.9830 C.2   148  THR148      0.2287
     63  O        -12.4910   10.5660    6.8750 O.2   148  THR148     -0.2866
     64  CB       -14.1360   10.3550    9.2380 C.3   148  THR148      0.1770
     65  OG1      -14.4620   11.7380    9.4150 O.3   148  THR148     -0.2211
     66  CG2      -14.7650    9.5760   10.3830 C.3   148  THR148      0.0375
     67  N        -14.9910    7.1220    4.3230 N.3   155  PHE155     -0.1241
     68  CA       -15.7430    8.3380    4.0500 C.3   155  PHE155      0.1605
     69  C        -15.1740    9.2330    2.9610 C.2   155  PHE155      0.2264
     70  O        -13.9730    9.4970    2.9220 O.2   155  PHE155     -0.2867
     71  CB       -15.8820    9.1420    5.3420 C.3   155  PHE155      0.0534
     72  CG       -16.5000    8.3660    6.4710 C.ar  155  PHE155     -0.0203
     73  CD1      -17.8500    8.0300    6.4460 C.ar  155  PHE155     -0.0042
     74  CD2      -15.7290    7.9570    7.5530 C.ar  155  PHE155     -0.0042
     75  CE1      -18.4260    7.2940    7.4900 C.ar  155  PHE155     -0.0003
     76  CE2      -16.2950    7.2230    8.5980 C.ar  155  PHE155     -0.0003
     77  CZ       -17.6460    6.8920    8.5650 C.ar  155  PHE155     -0.0000
     78  N        -18.4500   18.9180   -0.0450 N.3   181  HIS181     -0.1241
     79  CA       -18.4840   18.6790    1.3900 C.3   181  HIS181      0.1621
     80  C        -17.2750   17.9010    1.9040 C.2   181  HIS181      0.2264
     81  O        -16.6200   17.1800    1.1520 O.2   181  HIS181     -0.2867
     82  CB       -19.7980   17.9520    1.7250 C.3   181  HIS181      0.0745
     83  CG       -19.8370   17.3420    3.0920 C.ar  181  HIS181      0.0817
     84  ND1      -19.1290   16.2060    3.4210 N.ar  181  HIS181     -0.2268
     85  CD2      -20.5160   17.6990    4.2090 C.ar  181  HIS181      0.1154
     86  CE1      -19.3700   15.8880    4.6790 C.ar  181  HIS181      0.1986
     87  NE2      -20.2070   16.7780    5.1800 N.ar  181  HIS181     -0.2212
     88  N        -15.6070   16.2140    5.9220 N.3   183  HIS183     -0.1241
     89  CA       -15.6700   16.0450    7.3670 C.3   183  HIS183      0.1621
     90  C        -14.4900   15.1560    7.7320 C.2   183  HIS183      0.2264
     91  O        -14.5190   13.9520    7.4770 O.2   183  HIS183     -0.2867
     92  CB       -16.9770   15.3750    7.7850 C.3   183  HIS183      0.0745
     93  CG       -17.1040   15.2160    9.2650 C.ar  183  HIS183      0.0817
     94  ND1      -17.4170   16.2670   10.0990 N.ar  183  HIS183     -0.2268
     95  CD2      -16.8560   14.1570   10.0710 C.ar  183  HIS183      0.1154
     96  CE1      -17.3540   15.8640   11.3550 C.ar  183  HIS183      0.1986
     97  NE2      -17.0160   14.5870   11.3660 N.ar  183  HIS183     -0.2212
     98  N        -13.9430   13.9050   14.4540 N.3   186  SER186     -0.1202
     99  CA       -14.7360   14.4040   15.5730 C.3   186  SER186      0.2020
    100  C        -13.8700   14.6830   16.8060 C.2   186  SER186      0.2618
    101  O        -12.7890   14.1150   16.9580 O.2   186  SER186     -0.2717
    102  CB       -15.8290   13.3900   15.9350 C.3   186  SER186      0.2103
    103  OG       -16.6910   13.9040   16.9330 O.3   186  SER186     -0.2182
    104  N        -14.3610   15.5550   17.6830 N.am  187  GLN187     -0.1979
    105  CA       -13.6500   15.9230   18.9040 C.3   187  GLN187      0.1601
    106  C        -12.2600   16.4440   18.5570 C.2   187  GLN187      0.2287
    107  O        -11.2640   16.0290   19.1400 O.2   187  GLN187     -0.2864
    108  CB       -13.5610   14.7110   19.8410 C.3   187  GLN187      0.0394
    109  CG       -12.8390   14.9420   21.1880 C.3   187  GLN187      0.0908
    110  CD       -13.3660   16.1370   21.9630 C.2   187  GLN187      0.2608
    111  OE1      -14.5570   16.4320   21.9390 O.2   187  GLN187     -0.2717
    112  NE2      -12.4760   16.8230   22.6690 N.am  187  GLN187     -0.0878
    113  N        -18.7920   18.9230   10.7920 N.3   222  GLY222     -0.1210
    114  CA       -18.7120   19.3040   12.1930 C.3   222  GLY222      0.1956
    115  C        -17.3220   18.9630   12.6930 C.2   222  GLY222      0.2612
    116  O        -16.3420   19.2020   11.9880 O.2   222  GLY222     -0.2717
    117  N        -17.2170   18.4230   13.9030 N.am  223  GLY223     -0.1942
    118  CA       -15.9100   18.0340   14.4030 C.3   223  GLY223      0.2014
    119  C        -15.2550   18.8310   15.5120 C.2   223  GLY223      0.2638
    120  O        -14.2720   18.3720   16.0810 O.2   223  GLY223     -0.2714
    121  N        -15.7640   20.0140   15.8290 N.am  224  ILE224     -0.1977
    122  CA       -15.1580   20.8110   16.8960 C.3   224  ILE224      0.1596
    123  C        -15.3230   20.1250   18.2530 C.2   224  ILE224      0.2287
    124  O        -16.4420   19.8450   18.6840 O.2   224  ILE224     -0.2864
    125  CB       -15.7690   22.2230   16.9420 C.3   224  ILE224      0.0276
    126  CG1      -15.2930   23.0150   15.7190 C.3   224  ILE224      0.0022
    127  CG2      -15.3990   22.9200   18.2520 C.3   224  ILE224      0.0022
    128  CD1      -15.7020   24.4780   15.7100 C.3   224  ILE224      0.0001
    129  N        -21.8530   21.4170   10.1900 N.3   257  GLU257     -0.1231
    130  CA       -22.6350   20.3180   10.7280 C.3   257  GLU257      0.1684
    131  C        -22.2090   19.9860   12.1700 C.2   257  GLU257      0.2434
    132  O        -21.8560   18.8480   12.4800 O.2   257  GLU257     -0.2733
    133  CB       -22.4700   19.1020    9.8190 C.3   257  GLU257      0.0402
    134  CG       -22.7320   19.4220    8.3510 C.3   257  GLU257      0.1161
    135  CD       -22.5210   18.2320    7.4430 C.2   257  GLU257      0.3649
    136  OE1      -21.6310   17.4080    7.7370 O.co2 257  GLU257     -0.2457
    137  OE2      -23.2280   18.1260    6.4220 O.co2 257  GLU257     -0.2457
    138  N        -22.2500   20.9850   13.0720 N.am  258  PRO258     -0.2718
    139  CA       -21.8610   20.7590   14.4650 C.3   258  PRO258      0.1535
    140  C        -22.8080   19.8100   15.1990 C.2   258  PRO258      0.2599
    141  O        -24.0300   19.8770   15.0390 O.2   258  PRO258     -0.2715
    142  CB       -21.8900   22.1620   15.0530 C.3   258  PRO258      0.0310
    143  CG       -23.0550   22.7690   14.3500 C.3   258  PRO258      0.0237
    144  CD       -22.8160   22.3360   12.9070 C.3   258  PRO258      0.0939
    145  N        -22.2330   18.9250   16.0020 N.am  259  GLY259     -0.1941
    146  CA       -23.0300   17.9840   16.7660 C.3   259  GLY259      0.2014
    147  C        -22.6770   18.0620   18.2420 C.2   259  GLY259      0.2639
    148  O        -23.4300   18.6150   19.0460 O.2   259  GLY259     -0.2714
    149  N        -21.5170   17.5150   18.5850 N.am  260  ARG260     -0.1963
    150  CA       -21.0150   17.4900   19.9530 C.3   260  ARG260      0.1729
    151  C        -21.0060   18.8720   20.6040 C.2   260  ARG260      0.2616
    152  O        -21.5900   19.0680   21.6740 O.2   260  ARG260     -0.2715
    153  CB       -19.5960   16.9160   19.9610 C.3   260  ARG260      0.0348
    154  CG       -19.1080   16.4340   21.3150 C.3   260  ARG260      0.0492
    155  CD       -17.6010   16.2070   21.2830 C.3   260  ARG260      0.2205
    156  NE       -17.2010   15.2300   20.2770 N.pl3 260  ARG260     -0.0865
    157  CZ       -17.3540   13.9150   20.4030 C.cat 260  ARG260      0.5346
    158  NH1      -17.8950   13.3990   21.5040 N.pl3 260  ARG260      0.1354
    159  NH2      -16.9820   13.1140   19.4150 N.pl3 260  ARG260      0.1354
    160  N        -20.3370   19.8250   19.9580 N.am  261  SER261     -0.1950
    161  CA       -20.2330   21.1910   20.4760 C.3   261  SER261      0.1924
    162  C        -21.5750   21.9030   20.6780 C.2   261  SER261      0.2314
    163  O        -21.6280   22.9880   21.2500 O.2   261  SER261     -0.2863
    164  CB       -19.3280   22.0330   19.5660 C.3   261  SER261      0.2116
    165  OG       -19.7380   21.9690   18.2130 O.3   261  SER261     -0.2180
    166  N        -19.3590    5.9080   25.8440 N.3   294  ARG294     -0.1245
    167  CA       -18.1020    6.5840   25.5240 C.3   294  ARG294      0.1563
    168  C        -16.8140    6.0950   26.2010 C.2   294  ARG294      0.2260
    169  O        -15.8130    5.8440   25.5240 O.2   294  ARG294     -0.2867
    170  CB       -18.2510    8.1050   25.7120 C.3   294  ARG294      0.0307
    171  CG       -19.3250    8.7440   24.8310 C.3   294  ARG294      0.0489
    172  CD       -18.9480   10.1590   24.3830 C.3   294  ARG294      0.2205
    173  NE       -17.8960   10.1300   23.3710 N.pl3 294  ARG294     -0.0865
    174  CZ       -16.7140   10.7310   23.4860 C.cat 294  ARG294      0.5346
    175  NH1      -16.4140   11.4240   24.5740 N.pl3 294  ARG294      0.1354
    176  NH2      -15.8230   10.6270   22.5110 N.pl3 294  ARG294      0.1354
    177  N        -14.3160    4.5710   23.4930 N.3   298  TYR298     -0.1241
    178  CA       -13.2320    5.4640   23.0950 C.3   298  TYR298      0.1605
    179  C        -12.2290    5.7820   24.1930 C.2   298  TYR298      0.2264
    180  O        -11.3410    6.6090   23.9890 O.2   298  TYR298     -0.2867
    181  CB       -13.8230    6.7800   22.5820 C.3   298  TYR298      0.0534
    182  CG       -14.9970    6.5880   21.6540 C.ar  298  TYR298     -0.0201
    183  CD1      -14.8130    6.1710   20.3370 C.ar  298  TYR298     -0.0009
    184  CD2      -16.2970    6.7950   22.1030 C.ar  298  TYR298     -0.0009
    185  CE1      -15.8960    5.9680   19.4880 C.ar  298  TYR298      0.0417
    186  CE2      -17.3890    6.5930   21.2660 C.ar  298  TYR298      0.0417
    187  CZ       -17.1810    6.1800   19.9590 C.ar  298  TYR298      0.1957
    188  OH       -18.2640    5.9800   19.1400 O.3   298  TYR298     -0.2866
    189  N        -23.6070   11.9040   22.0100 N.3   351  TYR351     -0.1241
    190  CA       -23.2240   10.5060   21.8920 C.3   351  TYR351      0.1605
    191  C        -23.3350    9.8180   23.2340 C.2   351  TYR351      0.2264
    192  O        -22.5810    8.8990   23.5490 O.2   351  TYR351     -0.2867
    193  CB       -21.8030   10.4030   21.3360 C.3   351  TYR351      0.0534
    194  CG       -21.6570   11.1660   20.0370 C.ar  351  TYR351     -0.0201
    195  CD1      -22.3320   10.7540   18.8870 C.ar  351  TYR351     -0.0009
    196  CD2      -20.9000   12.3380   19.9720 C.ar  351  TYR351     -0.0009
    197  CE1      -22.2640   11.4960   17.7010 C.ar  351  TYR351      0.0417
    198  CE2      -20.8210   13.0870   18.7920 C.ar  351  TYR351      0.0417
    199  CZ       -21.5070   12.6630   17.6620 C.ar  351  TYR351      0.1957
    200  OH       -21.4520   13.4000   16.5000 O.3   351  TYR351     -0.2866
    201  N        -26.2490    6.3570   21.8590 N.3   355  MET355     -0.1245
    202  CA       -25.5230    5.1010   21.6280 C.3   355  MET355      0.1570
    203  C        -25.8780    4.0930   22.7190 C.2   355  MET355      0.2261
    204  O        -25.3100    2.9930   22.7680 O.2   355  MET355     -0.2867
    205  CB       -24.0070    5.3180   21.6600 C.3   355  MET355      0.0387
    206  CG       -23.4650    6.2960   20.6360 C.3   355  MET355      0.0595
    207  SD       -21.6480    6.2850   20.6600 S.3   355  MET355     -0.1393
    208  CE       -21.3270    4.9960   19.4420 C.3   355  MET355      0.0692
@<TRIPOS>BOND
     1    29    30    1
     2    32    31    2
     3    31    30    1
     4    78    79    1
     5    30    33    1
     6    81    80    2
     7    33    34    1
     8    79    82    1
     9    79    80    1
    10    82    83    1
    11    34    35    1
    12    70    69    2
    13    69    68    1
    14    83    84   ar
    15    83    85   ar
    16    84    86   ar
    17    35    36    1
    18    68    67    1
    19    68    71    1
    20    85    87   ar
    21    24    25    1
    22    24    23    1
    23    24    27    1
    24    36    37    2
    25    86    87   ar
    26    25    26    2
    27    28    27    1
    28    71    72    1
    29    37    38    1
    30    37    39    1
    31    88    89    1
    32   137   135   ar
    33    73    72   ar
    34    73    75   ar
    35    72    74   ar
    36    63    62    2
    37    89    90    1
    38    89    92    1
    39   135   136   ar
    40   135   134    1
    41    91    90    2
    42    75    77   ar
    43    74    76   ar
    44    92    93    1
    45    62    61    1
    46    21    20   ar
    47   134   133    1
    48    77    76   ar
    49    64    61    1
    50    64    65    1
    51    64    66    1
    52    61    60    1
    53    93    95   ar
    54    93    94   ar
    55    20    19    1
    56    20    22   ar
    57    16    19    1
    58    16    17    1
    59    16    15    1
    60    17    18    2
    61   133   130    1
    62    95    97   ar
    63    94    96   ar
    64   129   130    1
    65   130   131    1
    66   113   114    1
    67    96    97   ar
    68    14    13    1
    69   116   115    2
    70   131   132    2
    71   131   138   am
    72   114   115    1
    73    13    12    1
    74   115   117   am
    75   144   138    1
    76   144   143    1
    77   138   139    1
    78     2     5    1
    79     2     1    1
    80     2     3    1
    81    12    11    1
    82   117   118    1
    83    55    54    2
    84    54    53    1
    85   143   142    1
    86   118   119    1
    87    98    99    1
    88   139   142    1
    89   139   140    1
    90     3     4    2
    91    11    10    1
    92    43    42    2
    93    10     7    1
    94   141   140    2
    95     6     7    1
    96    53    52    1
    97    53    56    1
    98   140   145   am
    99    42    52   am
   100    42    41    1
   101   119   121   am
   102   119   120    2
   103    99   102    1
   104    99   100    1
   105     7     8    1
   106   128   126    1
   107   126   125    1
   108    41    40    1
   109    41    44    1
   110   121   122    1
   111   102   103    1
   112   145   146    1
   113    56    57    1
   114    56    58    1
   115    47    49   ar
   116    47    45   ar
   117   200   199    1
   118    49    50   ar
   119   146   147    1
   120   100   101    2
   121   100   104   am
   122   122   125    1
   123   122   123    1
   124   125   127    1
   125    44    45    1
   126     8     9    2
   127    57    59    1
   128    45    46   ar
   129   199   197   ar
   130   199   198   ar
   131   104   105    1
   132   197   195   ar
   133    50    51    1
   134    50    48   ar
   135   165   164    1
   136   147   149   am
   137   147   148    2
   138   123   124    2
   139    46    48   ar
   140   106   105    1
   141   106   107    2
   142   149   150    1
   143   198   196   ar
   144   195   194   ar
   145   105   108    1
   146   188   187    1
   147   159   157    1
   148   208   207    1
   149   185   187   ar
   150   185   183   ar
   151   164   161    1
   152   108   109    1
   153   150   153    1
   154   150   151    1
   155   160   161    1
   156   160   151   am
   157   187   186   ar
   158   153   154    1
   159   196   194   ar
   160   194   193    1
   161   156   157    2
   162   156   155    1
   163   183   182   ar
   164   157   158    1
   165   161   162    1
   166   151   152    2
   167   206   207    1
   168   206   205    1
   169   162   163    2
   170   109   110    1
   171   186   184   ar
   172   155   154    1
   173   193   190    1
   174   202   205    1
   175   202   201    1
   176   202   203    1
   177   182   184   ar
   178   182   181    1
   179   190   189    1
   180   190   191    1
   181   111   110    2
   182   110   112   am
   183   176   174    1
   184   181   178    1
   185   203   204    2
   186   178   177    1
   187   178   179    1
   188   191   192    2
   189   173   174    2
   190   173   172    1
   191   174   175    1
   192   180   179    2
   193   172   171    1
   194   171   170    1
   195   169   168    2
   196   167   170    1
   197   167   166    1
   198   167   168    1
