@<TRIPOS>MOLECULE
tmp/2qgiB00.pdb
 142 137 0 0 0
SMALL
GASTEIGER

@<TRIPOS>ATOM
      1  N         93.5250  -13.3750  -16.0600 N.3    22  LEU22      -0.1245
      2  CA        93.0710  -14.6330  -15.3650 C.3    22  LEU22       0.1561
      3  C         93.4860  -15.8040  -16.2820 C.2    22  LEU22       0.2260
      4  O         92.9960  -15.8960  -17.4260 O.2    22  LEU22      -0.2867
      5  CB        91.5250  -14.5420  -15.1840 C.3    22  LEU22       0.0270
      6  CG        90.8960  -15.6390  -14.3340 C.3    22  LEU22       0.0019
      7  CD1       91.5990  -15.7610  -12.8810 C.3    22  LEU22       0.0001
      8  CD2       89.3980  -15.3440  -14.2610 C.3    22  LEU22       0.0001
      9  N         94.4620  -19.7270  -17.4240 N.3    24  ARG24      -0.1245
     10  CA        94.4530  -21.1980  -17.3080 C.3    24  ARG24       0.1563
     11  C         95.2170  -21.8710  -18.4340 C.2    24  ARG24       0.2260
     12  O         95.7190  -22.9890  -18.2080 O.2    24  ARG24      -0.2867
     13  CB        93.0580  -21.7490  -17.1830 C.3    24  ARG24       0.0307
     14  CG        92.1920  -21.6530  -18.3550 C.3    24  ARG24       0.0489
     15  CD        90.7780  -22.1640  -17.9230 C.3    24  ARG24       0.2205
     16  NE        90.7210  -23.6010  -17.6870 N.pl3  24  ARG24      -0.0865
     17  CZ        89.6000  -24.3350  -17.8830 C.cat  24  ARG24       0.5346
     18  NH1       88.4610  -23.7190  -18.3220 N.pl3  24  ARG24       0.1354
     19  NH2       89.6140  -25.6500  -17.6440 N.pl3  24  ARG24       0.1354
     20  N         97.3510  -19.5510  -24.8240 N.3    28  LYS28      -0.1245
     21  CA        96.5190  -18.3140  -25.0380 C.3    28  LYS28       0.1561
     22  C         97.2390  -17.1470  -24.3630 C.2    28  LYS28       0.2260
     23  O         97.3360  -16.0420  -24.9590 O.2    28  LYS28      -0.2867
     24  CB        95.1250  -18.4670  -24.4620 C.3    28  LYS28       0.0271
     25  CG        94.2910  -19.5070  -25.2340 C.3    28  LYS28       0.0035
     26  CD        92.8950  -19.6760  -24.6200 C.3    28  LYS28       0.0206
     27  CE        92.1340  -20.7210  -25.4260 C.3    28  LYS28       0.1093
     28  NZ        90.8770  -21.0090  -24.6960 N.3    28  LYS28      -0.1314
     29  N         95.5110  -19.7300  -12.6600 N.3    53  ASN53      -0.1240
     30  CA        94.5680  -20.8590  -12.6360 C.3    53  ASN53       0.1653
     31  C         95.0320  -21.9860  -13.5530 C.2    53  ASN53       0.2266
     32  O         94.2430  -22.8100  -14.0200 O.2    53  ASN53      -0.2867
     33  CB        93.1750  -20.3270  -13.0590 C.3    53  ASN53       0.1155
     34  CG        92.3320  -19.8750  -11.8620 C.2    53  ASN53       0.2627
     35  OD1       91.0780  -19.6360  -12.0370 O.2    53  ASN53      -0.2716
     36  ND2       92.9120  -19.7480  -10.7070 N.am   53  ASN53      -0.0877
     37  N         91.2250  -24.0730  -10.2840 N.3    57  ASN57      -0.1240
     38  CA        90.4210  -22.8300  -10.1190 C.3    57  ASN57       0.1653
     39  C         90.6810  -22.1970   -8.7490 C.2    57  ASN57       0.2266
     40  O         89.7660  -22.0320   -7.9440 O.2    57  ASN57      -0.2867
     41  CB        88.9190  -23.1260  -10.3090 C.3    57  ASN57       0.1155
     42  CG        88.5170  -23.2510  -11.7660 C.2    57  ASN57       0.2627
     43  OD1       89.2630  -22.8750  -12.6700 O.2    57  ASN57      -0.2716
     44  ND2       87.3560  -23.8760  -11.9910 N.am   57  ASN57      -0.0877
     45  N         90.6870  -11.2850  -19.6650 N.3    81  HIS81      -0.1226
     46  CA        90.8670  -12.7310  -19.8840 C.3    81  HIS81       0.1752
     47  C         92.1930  -12.9920  -20.6200 C.2    81  HIS81       0.2596
     48  O         92.7740  -12.1190  -21.2700 O.2    81  HIS81      -0.2718
     49  CB        89.7940  -13.1950  -20.8460 C.3    81  HIS81       0.0759
     50  CG        88.4150  -13.1790  -20.2690 C.ar   81  HIS81       0.0818
     51  ND1       87.3660  -13.6500  -21.0010 N.ar   81  HIS81      -0.2268
     52  CD2       87.9370  -12.8040  -19.0600 C.ar   81  HIS81       0.1154
     53  CE1       86.2630  -13.5370  -20.2940 C.ar   81  HIS81       0.1986
     54  NE2       86.5800  -13.0500  -19.0980 N.ar   81  HIS81      -0.2212
     55  N         92.5910  -14.2740  -20.5770 N.am   82  GLU82      -0.1965
     56  CA        93.8310  -14.7250  -21.2620 C.3    82  GLU82       0.1733
     57  C         93.6580  -14.7800  -22.7840 C.2    82  GLU82       0.2616
     58  O         94.6780  -14.8850  -23.5070 O.2    82  GLU82      -0.2715
     59  CB        94.2220  -16.1720  -20.8250 C.3    82  GLU82       0.0429
     60  CG        92.9530  -17.1440  -20.9670 C.3    82  GLU82       0.1163
     61  CD        93.1460  -18.6090  -20.4500 C.2    82  GLU82       0.3649
     62  OE1       94.2110  -18.8160  -20.0050 O.co2  82  GLU82      -0.2457
     63  OE2       92.2040  -19.4370  -20.7060 O.co2  82  GLU82      -0.2457
     64  N         92.4140  -14.7720  -23.2290 N.am   83  ASP83      -0.1971
     65  CA        92.0920  -14.9570  -24.6750 C.3    83  ASP83       0.1709
     66  C         91.7020  -13.6320  -25.3380 C.2    83  ASP83       0.2293
     67  O         90.9110  -13.6060  -26.2660 O.2    83  ASP83      -0.2864
     68  CB        91.0450  -16.0050  -24.8880 C.3    83  ASP83       0.1436
     69  CG        89.7460  -15.7060  -24.1790 C.2    83  ASP83       0.3671
     70  OD1       89.5930  -14.6900  -23.4340 O.co2  83  ASP83      -0.2456
     71  OD2       88.7780  -16.4270  -24.4800 O.co2  83  ASP83      -0.2456
     72  N         82.4530  -17.6140  -12.7350 N.3   174  PHE174     -0.1227
     73  CA        83.1020  -17.0410  -13.9230 C.3   174  PHE174      0.1736
     74  C         82.0930  -16.3690  -14.8550 C.2   174  PHE174      0.2595
     75  O         82.3300  -16.2990  -16.0530 O.2   174  PHE174     -0.2718
     76  CB        83.8200  -18.2020  -14.6950 C.3   174  PHE174      0.0547
     77  CG        84.9610  -18.7680  -13.8870 C.ar  174  PHE174     -0.0202
     78  CD1       86.1610  -18.0790  -13.8660 C.ar  174  PHE174     -0.0042
     79  CD2       84.7550  -19.8870  -13.0700 C.ar  174  PHE174     -0.0042
     80  CE1       87.2540  -18.5760  -13.0570 C.ar  174  PHE174     -0.0003
     81  CE2       85.8550  -20.3730  -12.2190 C.ar  174  PHE174     -0.0003
     82  CZ        87.0730  -19.6550  -12.2520 C.ar  174  PHE174     -0.0000
     83  N         81.0100  -15.8670  -14.2710 N.am  175  HIS175     -0.1975
     84  CA        80.0190  -15.0510  -15.0310 C.3   175  HIS175      0.1656
     85  C         79.5940  -13.9000  -14.1200 C.2   175  HIS175      0.2291
     86  O         79.5680  -14.0370  -12.9040 O.2   175  HIS175     -0.2864
     87  CB        78.7700  -15.9140  -15.3560 C.3   175  HIS175      0.0771
     88  CG        79.1100  -17.1140  -16.1900 C.ar  175  HIS175      0.0820
     89  ND1       79.5050  -16.9910  -17.4990 N.ar  175  HIS175     -0.2267
     90  CD2       79.2140  -18.4280  -15.8690 C.ar  175  HIS175      0.1154
     91  CE1       79.8030  -18.1950  -17.9750 C.ar  175  HIS175      0.1986
     92  NE2       79.6150  -19.0830  -17.0170 N.ar  175  HIS175     -0.2212
     93  N         80.7450  -11.1070  -13.2000 N.3   177  TYR177     -0.1241
     94  CA        81.6270  -10.2480  -12.3890 C.3   177  TYR177      0.1605
     95  C         81.8960   -8.8520  -13.0440 C.2   177  TYR177      0.2264
     96  O         82.3820   -7.9430  -12.3840 O.2   177  TYR177     -0.2867
     97  CB        82.9100  -11.0040  -11.9430 C.3   177  TYR177      0.0534
     98  CG        83.6800  -11.6720  -13.0840 C.ar  177  TYR177     -0.0201
     99  CD1       84.8720  -11.0660  -13.5790 C.ar  177  TYR177     -0.0009
    100  CD2       83.2790  -12.8850  -13.6410 C.ar  177  TYR177     -0.0009
    101  CE1       85.5970  -11.6920  -14.5870 C.ar  177  TYR177      0.0417
    102  CE2       83.9820  -13.4930  -14.7310 C.ar  177  TYR177      0.0417
    103  CZ        85.1310  -12.8730  -15.1350 C.ar  177  TYR177      0.1957
    104  OH        85.8570  -13.4230  -16.1840 O.3   177  TYR177     -0.2866
    105  N         88.8550  -10.5190  -29.0910 N.3   201  HIS201     -0.1241
    106  CA        88.5390  -11.4550  -27.9790 C.3   201  HIS201      0.1621
    107  C         88.0850  -12.7690  -28.6030 C.2   201  HIS201      0.2264
    108  O         87.0700  -12.8150  -29.2420 O.2   201  HIS201     -0.2867
    109  CB        87.4360  -10.9050  -27.0660 C.3   201  HIS201      0.0745
    110  CG        87.0090  -11.8820  -26.0180 C.ar  201  HIS201      0.0817
    111  ND1       85.6750  -12.0770  -25.6850 N.ar  201  HIS201     -0.2268
    112  CD2       87.7390  -12.7580  -25.2660 C.ar  201  HIS201      0.1154
    113  CE1       85.6090  -12.9890  -24.7230 C.ar  201  HIS201      0.1986
    114  NE2       86.8370  -13.4310  -24.4680 N.ar  201  HIS201     -0.2212
    115  N         87.2870  -15.7420  -27.1250 N.3   203  GLY203     -0.1210
    116  CA        86.5000  -16.7020  -26.3830 C.3   203  GLY203      0.1956
    117  C         85.2740  -17.1960  -27.1420 C.2   203  GLY203      0.2612
    118  O         84.6620  -16.4800  -27.9660 O.2   203  GLY203     -0.2717
    119  N         84.8890  -18.4340  -26.8960 N.am  204  ARG204     -0.1965
    120  CA        83.5140  -18.6940  -27.2350 C.3   204  ARG204      0.1729
    121  C         82.3430  -18.4620  -26.3370 C.2   204  ARG204      0.2616
    122  O         82.4350  -18.4580  -25.1160 O.2   204  ARG204     -0.2715
    123  CB        83.3010  -19.7340  -28.3530 C.3   204  ARG204      0.0348
    124  CG        81.8330  -20.1730  -28.4300 C.3   204  ARG204      0.0492
    125  CD        81.5590  -20.6740  -29.8560 C.3   204  ARG204      0.2205
    126  NE        82.8470  -20.8400  -30.5340 N.pl3 204  ARG204     -0.0865
    127  CZ        83.0750  -20.6150  -31.8270 C.cat 204  ARG204      0.5346
    128  NH1       82.0780  -20.2450  -32.6360 N.pl3 204  ARG204      0.1354
    129  NH2       84.3050  -20.7860  -32.3100 N.pl3 204  ARG204      0.1354
    130  N         81.1900  -18.2140  -26.9230 N.am  205  ALA205     -0.1963
    131  CA        80.1800  -18.2100  -25.9900 C.3   205  ALA205      0.1728
    132  C         79.7390  -19.4130  -25.2490 C.2   205  ALA205      0.2616
    133  O         78.6030  -19.4750  -24.7760 O.2   205  ALA205     -0.2715
    134  CB        79.8720  -16.8610  -25.4090 C.3   205  ALA205      0.0334
    135  N         80.6620  -20.4170  -25.1560 N.am  206  ILE206     -0.1977
    136  CA        80.3170  -21.8320  -24.7460 C.3   206  ILE206      0.1596
    137  C         79.5000  -21.8670  -23.4440 C.2   206  ILE206      0.2287
    138  O         79.9760  -21.4350  -22.3650 O.2   206  ILE206     -0.2864
    139  CB        81.5470  -22.8740  -24.6890 C.3   206  ILE206      0.0276
    140  CG1       82.2170  -23.0780  -26.0580 C.3   206  ILE206      0.0022
    141  CG2       81.0950  -24.2650  -24.1830 C.3   206  ILE206      0.0022
    142  CD1       83.6150  -23.7870  -25.9490 C.3   206  ILE206      0.0001
@<TRIPOS>BOND
     1   128   127    1
     2   129   127    1
     3   127   126    2
     4   126   125    1
     5   125   124    1
     6   108   107    2
     7   105   106    1
     8   107   106    1
     9   124   123    1
    10   123   120    1
    11   106   109    1
    12   118   117    2
    13   120   119    1
    14   120   121    1
    15   117   119   am
    16   117   116    1
    17   115   116    1
    18   109   110    1
    19   130   121   am
    20   130   131    1
    21   121   122    2
    22    67    66    2
    23   140   142    1
    24   140   139    1
    25   110   111   ar
    26   110   112   ar
    27   131   134    1
    28   131   132    1
    29   111   113   ar
    30    27    28    1
    31    27    26    1
    32    66    65    1
    33   112   114   ar
    34   132   135   am
    35   132   133    2
    36    25    26    1
    37    25    24    1
    38   135   136    1
    39    21    20    1
    40    21    24    1
    41    21    22    1
    42    23    22    2
    43    68    65    1
    44    68    69    1
    45   136   139    1
    46   136   137    1
    47   113   114   ar
    48   139   141    1
    49    65    64    1
    50    71    69   ar
    51    69    70   ar
    52    58    57    2
    53   137   138    2
    54    64    57   am
    55    57    56    1
    56    48    47    2
    57    56    59    1
    58    56    55    1
    59    51    53   ar
    60    51    50   ar
    61    60    59    1
    62    60    61    1
    63    49    50    1
    64    49    46    1
    65    63    61   ar
    66    47    55   am
    67    47    46    1
    68    61    62   ar
    69    53    54   ar
    70    50    52   ar
    71    46    45    1
    72    54    52   ar
    73    11    12    2
    74    11    10    1
    75    14    15    1
    76    14    13    1
    77    18    17    1
    78    91    89   ar
    79    91    92   ar
    80    15    16    1
    81    17    16    2
    82    17    19    1
    83    89    88   ar
    84     4     3    2
    85     9    10    1
    86    10    13    1
    87    92    90   ar
    88     3     2    1
    89    88    90   ar
    90    88    87    1
    91   104   103    1
    92     1     2    1
    93    75    74    2
    94     2     5    1
    95    87    84    1
    96     5     6    1
    97   103   102   ar
    98   103   101   ar
    99    84    83    1
   100    84    85    1
   101    74    83   am
   102    74    73    1
   103   102   100   ar
   104    76    73    1
   105    76    77    1
   106   101    99   ar
   107     6     8    1
   108     6     7    1
   109    85    86    2
   110    32    31    2
   111    73    72    1
   112    77    78   ar
   113    77    79   ar
   114    78    80   ar
   115   100    98   ar
   116    99    98   ar
   117    31    30    1
   118    93    94    1
   119    98    97    1
   120    79    81   ar
   121    33    30    1
   122    33    34    1
   123    80    82   ar
   124    95    94    1
   125    95    96    2
   126    43    42    2
   127    29    30    1
   128    94    97    1
   129    82    81   ar
   130    35    34    2
   131    44    42   am
   132    34    36   am
   133    42    41    1
   134    41    38    1
   135    37    38    1
   136    38    39    1
   137    39    40    2
