@<TRIPOS>MOLECULE
tmp/2qgtB00.pdb
 178 168 0 0 0
SMALL
GASTEIGER

@<TRIPOS>ATOM
      1  N        -10.9590   -7.5350   -6.2100 N.3    39  MET39      -0.1245
      2  CA       -10.3920   -6.2190   -5.9310 C.3    39  MET39       0.1570
      3  C        -11.5270   -5.2050   -5.7560 C.2    39  MET39       0.2261
      4  O        -11.4120   -4.2670   -4.9700 O.2    39  MET39      -0.2867
      5  CB        -9.4310   -5.7540   -7.0410 C.3    39  MET39       0.0387
      6  CG        -7.9930   -6.3050   -6.9300 C.3    39  MET39       0.0595
      7  SD        -7.1370   -5.9070   -5.3630 S.3    39  MET39      -0.1393
      8  CE        -7.1210   -4.1080   -5.4640 C.3    39  MET39       0.0692
      9  N        -13.0390   -5.7230   -2.1380 N.3    42  LEU42      -0.1231
     10  CA       -12.1190   -5.2980   -1.0760 C.3    42  LEU42       0.1693
     11  C        -12.0440   -3.7680   -0.9730 C.2    42  LEU42       0.2592
     12  O        -12.1950   -3.2060    0.1080 O.2    42  LEU42      -0.2718
     13  CB       -10.7360   -5.9050   -1.3120 C.3    42  LEU42       0.0284
     14  CG       -10.6560   -7.4330   -1.2180 C.3    42  LEU42       0.0019
     15  CD1       -9.1780   -7.8900   -1.3630 C.3    42  LEU42       0.0001
     16  CD2      -11.2360   -7.9130    0.0820 C.3    42  LEU42       0.0001
     17  N        -11.8510   -3.1080   -2.1070 N.am   43  THR43      -0.1953
     18  CA       -11.7740   -1.6420   -2.1620 C.3    43  THR43       0.1897
     19  C        -13.1270   -0.9290   -1.9210 C.2    43  THR43       0.2313
     20  O        -13.1610    0.1490   -1.3480 O.2    43  THR43      -0.2863
     21  CB       -11.1770   -1.1870   -3.5070 C.3    43  THR43       0.1794
     22  OG1      -12.0170   -1.6040   -4.5960 O.3    43  THR43      -0.2208
     23  CG2       -9.7810   -1.7690   -3.7040 C.3    43  THR43       0.0378
     24  N        -15.4780   -2.1260    0.0410 N.3    45  LEU45      -0.1231
     25  CA       -15.5700   -2.2540    1.4830 C.3    45  LEU45       0.1693
     26  C        -14.7310   -1.1790    2.1660 C.2    45  LEU45       0.2591
     27  O        -15.2250   -0.4640    3.0300 O.2    45  LEU45      -0.2718
     28  CB       -15.1200   -3.6590    1.9030 C.3    45  LEU45       0.0284
     29  CG       -14.9570   -3.9820    3.3880 C.3    45  LEU45       0.0019
     30  CD1      -16.2630   -3.7340    4.1560 C.3    45  LEU45       0.0001
     31  CD2      -14.4720   -5.4180    3.5330 C.3    45  LEU45       0.0001
     32  N        -13.4740   -1.0740    1.7510 N.am   46  ALA46      -0.1980
     33  CA       -12.5070   -0.1370    2.3330 C.3    46  ALA46       0.1597
     34  C        -12.9490    1.3160    2.2170 C.2    46  ALA46       0.2287
     35  O        -12.7610    2.1090    3.1350 O.2    46  ALA46      -0.2864
     36  CB       -11.1040   -0.3240    1.6650 C.3    46  ALA46       0.0319
     37  N        -15.5610    1.8780    4.7320 N.3    49  GLU49      -0.1245
     38  CA       -14.9070    1.8430    6.0240 C.3    49  GLU49       0.1567
     39  C        -14.1950    3.1550    6.3450 C.2    49  GLU49       0.2260
     40  O        -14.1940    3.5950    7.4890 O.2    49  GLU49      -0.2867
     41  CB       -13.9100    0.6860    6.1040 C.3    49  GLU49       0.0388
     42  CG       -14.5120   -0.6760    6.2950 C.3    49  GLU49       0.1160
     43  CD       -13.4320   -1.6980    6.5240 C.2    49  GLU49       0.3649
     44  OE1      -12.7890   -2.1500    5.5510 O.co2  49  GLU49      -0.2457
     45  OE2      -13.1820   -2.0150    7.7020 O.co2  49  GLU49      -0.2457
     46  N         -4.0480    5.6070    7.2220 N.3    79  TRP79      -0.1227
     47  CA        -5.3270    4.9820    6.8790 C.3    79  TRP79       0.1737
     48  C         -5.3120    3.4580    6.5850 C.2    79  TRP79       0.2595
     49  O         -6.1870    2.7430    7.0700 O.2    79  TRP79      -0.2718
     50  CB        -6.0320    5.7320    5.7380 C.3    79  TRP79       0.0564
     51  CG        -5.4360    5.5630    4.4090 C.ar   79  TRP79       0.0003
     52  CD1       -4.4330    6.2890    3.8690 C.ar   79  TRP79       0.0946
     53  CD2       -5.8230    4.6050    3.4230 C.ar   79  TRP79       0.0152
     54  NE1       -4.1640    5.8500    2.5920 N.ar   79  TRP79      -0.2442
     55  CE2       -5.0050    4.8150    2.2920 C.ar   79  TRP79       0.0810
     56  CE3       -6.7840    3.5910    3.3830 C.ar   79  TRP79       0.0012
     57  CZ2       -5.1090    4.0420    1.1350 C.ar   79  TRP79       0.0191
     58  CZ3       -6.8900    2.8190    2.2340 C.ar   79  TRP79       0.0001
     59  CH2       -6.0570    3.0480    1.1220 C.ar   79  TRP79       0.0015
     60  N         -4.3630    2.9710    5.7840 N.am   80  LEU80      -0.1980
     61  CA        -4.3050    1.5450    5.4380 C.3    80  LEU80       0.1596
     62  C         -3.7670    0.7340    6.6070 C.2    80  LEU80       0.2287
     63  O         -4.1590   -0.4220    6.8050 O.2    80  LEU80      -0.2864
     64  CB        -3.4840    1.3020    4.1530 C.3    80  LEU80       0.0297
     65  CG        -3.4700   -0.1140    3.5790 C.3    80  LEU80       0.0022
     66  CD1       -4.9230   -0.6570    3.2960 C.3    80  LEU80       0.0001
     67  CD2       -2.5920   -0.2200    2.3510 C.3    80  LEU80       0.0001
     68  N         -6.8970    0.2260    8.5960 N.3    83  LEU83      -0.1231
     69  CA        -7.7600   -0.8190    8.0020 C.3    83  LEU83       0.1693
     70  C         -7.2040   -2.2210    8.2530 C.2    83  LEU83       0.2591
     71  O         -7.9500   -3.1560    8.5280 O.2    83  LEU83      -0.2718
     72  CB        -7.9410   -0.6100    6.4960 C.3    83  LEU83       0.0284
     73  CG        -8.8180    0.5720    6.0510 C.3    83  LEU83       0.0019
     74  CD1       -8.8110    0.6490    4.5130 C.3    83  LEU83       0.0001
     75  CD2      -10.2340    0.4640    6.5950 C.3    83  LEU83       0.0001
     76  N         -5.8890   -2.3430    8.1920 N.am   84  MET84      -0.1979
     77  CA        -5.2310   -3.6240    8.3320 C.3    84  MET84       0.1605
     78  C         -5.2490   -4.1830    9.7510 C.2    84  MET84       0.2287
     79  O         -5.4790   -5.3910    9.9360 O.2    84  MET84      -0.2864
     80  CB        -3.7990   -3.5280    7.8240 C.3    84  MET84       0.0413
     81  CG        -3.7140   -3.5470    6.3150 C.3    84  MET84       0.0598
     82  SD        -2.0290   -3.4560    5.6890 S.3    84  MET84      -0.1393
     83  CE        -2.3520   -3.9650    3.9960 C.3    84  MET84       0.0692
     84  N         -8.6060   -5.4100   10.3060 N.3    87  LEU87      -0.1245
     85  CA        -8.7620   -6.7130    9.6160 C.3    87  LEU87       0.1561
     86  C         -8.1550   -7.8570   10.4440 C.2    87  LEU87       0.2260
     87  O         -8.8100   -8.8890   10.7180 O.2    87  LEU87      -0.2867
     88  CB        -8.1360   -6.6580    8.2240 C.3    87  LEU87       0.0270
     89  CG        -8.0560   -7.9450    7.4180 C.3    87  LEU87       0.0019
     90  CD1       -9.4430   -8.5030    7.1730 C.3    87  LEU87       0.0001
     91  CD2       -7.3120   -7.6690    6.0900 C.3    87  LEU87       0.0001
     92  N        -10.2130   -8.6290   13.6280 N.3    90  ARG90      -0.1245
     93  CA       -11.4530   -9.4080   13.4750 C.3    90  ARG90       0.1563
     94  C        -11.2780  -10.8030   12.8560 C.2    90  ARG90       0.2260
     95  O        -12.2080  -11.6130   12.8920 O.2    90  ARG90      -0.2867
     96  CB       -12.5460   -8.5970   12.7800 C.3    90  ARG90       0.0307
     97  CG       -12.2030   -8.0440   11.4840 C.3    90  ARG90       0.0489
     98  CD       -13.3220   -7.1590   10.9850 C.3    90  ARG90       0.2205
     99  NE       -12.9940   -6.8020    9.6140 N.pl3  90  ARG90      -0.0865
    100  CZ       -12.3940   -5.6780    9.2640 C.cat  90  ARG90       0.5346
    101  NH1      -12.1010   -4.7520   10.1770 N.pl3  90  ARG90       0.1354
    102  NH2      -12.1160   -5.4580    7.9850 N.pl3  90  ARG90       0.1354
    103  N        -12.6780  -10.0100    6.2100 N.3   100  PHE100     -0.1241
    104  CA       -12.8610   -8.6580    5.6880 C.3   100  PHE100      0.1605
    105  C        -14.2010   -8.0830    6.1250 C.2   100  PHE100      0.2264
    106  O        -14.2790   -6.9240    6.5560 O.2   100  PHE100     -0.2867
    107  CB       -12.7300   -8.6600    4.1610 C.3   100  PHE100      0.0534
    108  CG       -11.2980   -8.7520    3.6870 C.ar  100  PHE100     -0.0203
    109  CD1      -10.4890   -7.6180    3.6340 C.ar  100  PHE100     -0.0042
    110  CD2      -10.7530   -9.9720    3.3150 C.ar  100  PHE100     -0.0042
    111  CE1       -9.1830   -7.7020    3.1870 C.ar  100  PHE100     -0.0003
    112  CE2       -9.4360  -10.0620    2.8810 C.ar  100  PHE100     -0.0003
    113  CZ        -8.6510   -8.9300    2.8190 C.ar  100  PHE100     -0.0000
    114  N         -1.1250  -10.7960   -4.5290 N.3   117  MET117     -0.1245
    115  CA        -1.9360  -10.5650   -3.3510 C.3   117  MET117      0.1570
    116  C         -1.7110  -11.5890   -2.2560 C.2   117  MET117      0.2261
    117  O         -1.7600  -11.2320   -1.0840 O.2   117  MET117     -0.2867
    118  CB        -3.4090  -10.5230   -3.7430 C.3   117  MET117      0.0387
    119  CG        -4.3800  -10.5940   -2.5920 C.3   117  MET117      0.0595
    120  SD        -4.8050   -8.9690   -2.0410 S.3   117  MET117     -0.1393
    121  CE        -6.1540   -8.6850   -3.1360 C.3   117  MET117      0.0692
    122  N          0.6600  -10.6760    0.4750 N.3   120  ILE120     -0.1231
    123  CA         0.1480   -9.7500    1.4570 C.3   120  ILE120      0.1692
    124  C         -0.7560  -10.4890    2.4440 C.2   120  ILE120      0.2592
    125  O         -0.6180  -10.3050    3.6470 O.2   120  ILE120     -0.2718
    126  CB        -0.5690   -8.5390    0.8140 C.3   120  ILE120      0.0266
    127  CG1        0.3780   -7.7800   -0.1220 C.3   120  ILE120      0.0019
    128  CG2       -1.0500   -7.5560    1.9110 C.3   120  ILE120      0.0020
    129  CD1       -0.3150   -6.8110   -0.9850 C.3   120  ILE120      0.0001
    130  N         -1.6530  -11.3350    1.9370 N.am  121  PHE121     -0.1976
    131  CA        -2.5230  -12.1860    2.7830 C.3   121  PHE121      0.1639
    132  C         -1.7390  -12.9850    3.8100 C.2   121  PHE121      0.2290
    133  O         -2.1190  -13.0620    4.9740 O.2   121  PHE121     -0.2864
    134  CB        -3.3440  -13.1590    1.9220 C.3   121  PHE121      0.0560
    135  CG        -4.6730  -12.6170    1.4900 C.ar  121  PHE121     -0.0200
    136  CD1       -4.8370  -11.2660    1.1940 C.ar  121  PHE121     -0.0042
    137  CD2       -5.7620  -13.4630    1.3750 C.ar  121  PHE121     -0.0042
    138  CE1       -6.0840  -10.7750    0.8020 C.ar  121  PHE121     -0.0003
    139  CE2       -6.9950  -12.9980    0.9780 C.ar  121  PHE121     -0.0003
    140  CZ        -7.1670  -11.6510    0.6800 C.ar  121  PHE121     -0.0000
    141  N         -0.6450  -10.6930    6.6170 N.3   124  LEU124     -0.1245
    142  CA        -1.8060  -10.4110    7.4360 C.3   124  LEU124      0.1561
    143  C         -2.2010  -11.6070    8.3090 C.2   124  LEU124      0.2260
    144  O         -2.5720  -11.4270    9.4730 O.2   124  LEU124     -0.2867
    145  CB        -2.9800   -9.9760    6.5610 C.3   124  LEU124      0.0270
    146  CG        -2.8110   -8.5880    5.9210 C.3   124  LEU124      0.0019
    147  CD1       -3.7650   -8.3810    4.7420 C.3   124  LEU124      0.0001
    148  CD2       -2.9460   -7.4790    6.9580 C.3   124  LEU124      0.0001
    149  N          0.9590   -3.1110    0.8760 N.3   212  GLY212     -0.1225
    150  CA        -0.4170   -2.9840    0.4380 C.3   212  GLY212      0.1811
    151  C         -0.6220   -1.7790   -0.4640 C.2   212  GLY212      0.2280
    152  O         -1.3730   -1.8540   -1.4300 O.2   212  GLY212     -0.2866
    153  N          0.8060   -2.4270   -3.8960 N.3   215  HIS215     -0.1226
    154  CA        -0.0860   -3.3470   -4.5990 C.3   215  HIS215      0.1752
    155  C         -1.3310   -2.6320   -5.1050 C.2   215  HIS215      0.2595
    156  O         -1.6130   -2.6390   -6.2900 O.2   215  HIS215     -0.2718
    157  CB        -0.5030   -4.5050   -3.6960 C.3   215  HIS215      0.0759
    158  CG        -1.3700   -5.5210   -4.3740 C.ar  215  HIS215      0.0818
    159  ND1       -2.7470   -5.4520   -4.3630 N.ar  215  HIS215     -0.2268
    160  CD2       -1.0580   -6.6430   -5.0680 C.ar  215  HIS215      0.1154
    161  CE1       -3.2460   -6.4900   -5.0150 C.ar  215  HIS215      0.1986
    162  NE2       -2.2440   -7.2230   -5.4630 N.ar  215  HIS215     -0.2212
    163  N         -2.0710   -1.9990   -4.2100 N.am  216  LEU216     -0.1980
    164  CA        -3.1940   -1.1680   -4.6310 C.3   216  LEU216      0.1596
    165  C         -2.8350   -0.2570   -5.8070 C.2   216  LEU216      0.2287
    166  O         -3.6480   -0.0480   -6.7290 O.2   216  LEU216     -0.2864
    167  CB        -3.6820   -0.3060   -3.4810 C.3   216  LEU216      0.0297
    168  CG        -4.9770    0.4470   -3.7690 C.3   216  LEU216      0.0022
    169  CD1       -6.0940   -0.5120   -4.1250 C.3   216  LEU216      0.0001
    170  CD2       -5.3140    1.3210   -2.5590 C.3   216  LEU216      0.0001
    171  N        -10.4630    7.1980   -2.3410 N.3   231  LEU231     -0.1245
    172  CA        -9.3670    6.2380   -2.4180 C.3   231  LEU231      0.1561
    173  C         -8.1990    6.7120   -3.2850 C.2   231  LEU231      0.2260
    174  O         -7.0480    6.6070   -2.8840 O.2   231  LEU231     -0.2867
    175  CB        -9.8660    4.8720   -2.9120 C.3   231  LEU231      0.0270
    176  CG        -9.9110    3.7100   -1.9240 C.3   231  LEU231      0.0019
    177  CD1      -10.2320    4.1400   -0.5200 C.3   231  LEU231      0.0001
    178  CD2      -10.8870    2.6370   -2.3810 C.3   231  LEU231      0.0001
@<TRIPOS>BOND
     1     5     6    1
     2     5     2    1
     3     6     7    1
     4   166   165    2
     5   156   155    2
     6     1     2    1
     7     2     3    1
     8   165   164    1
     9     3     4    2
    10     8     7    1
    11   162   160   ar
    12   162   161   ar
    13   155   154    1
    14   155   163   am
    15   160   158   ar
    16   161   159   ar
    17   164   163    1
    18   164   167    1
    19   154   153    1
    20   154   157    1
    21    22    21    1
    22   114   115    1
    23   158   159   ar
    24   158   157    1
    25   169   168    1
    26   168   167    1
    27   168   170    1
    28   118   115    1
    29   118   119    1
    30    23    21    1
    31    21    18    1
    32   115   116    1
    33   173   174    2
    34   173   172    1
    35   121   120    1
    36   175   172    1
    37   175   176    1
    38   119   120    1
    39   172   171    1
    40   178   176    1
    41   116   117    2
    42    18    17    1
    43    18    19    1
    44     9    10    1
    45    17    11   am
    46   176   177    1
    47    19    20    2
    48   152   151    2
    49    15    14    1
    50    13    14    1
    51    13    10    1
    52    14    16    1
    53    10    11    1
    54   129   127    1
    55    11    12    2
    56   151   150    1
    57   127   126    1
    58    24    25    1
    59   150   149    1
    60   122   123    1
    61   140   138   ar
    62   140   139   ar
    63   138   136   ar
    64   126   123    1
    65   126   128    1
    66   139   137   ar
    67    59    57   ar
    68    59    58   ar
    69    57    55   ar
    70   136   135   ar
    71   137   135   ar
    72   123   124    1
    73    25    28    1
    74    25    26    1
    75   135   134    1
    76    36    33    1
    77    32    26   am
    78    32    33    1
    79    28    29    1
    80   134   131    1
    81   130   124   am
    82   130   131    1
    83    26    27    2
    84    34    33    1
    85    34    35    2
    86    58    56   ar
    87    55    54   ar
    88    55    53   ar
    89    67    65    1
    90   124   125    2
    91    54    52   ar
    92   131   132    1
    93   113   112   ar
    94   113   111   ar
    95   112   110   ar
    96   111   109   ar
    97    66    65    1
    98   110   108   ar
    99    56    53   ar
   100    29    31    1
   101    29    30    1
   102    53    51   ar
   103    65    64    1
   104   109   108   ar
   105   108   107    1
   106   132   133    2
   107    52    51   ar
   108    83    82    1
   109    64    61    1
   110   107   104    1
   111    51    50    1
   112    74    73    1
   113    37    38    1
   114   147   146    1
   115    61    60    1
   116    61    62    1
   117    44    43   ar
   118   104   105    1
   119   104   103    1
   120    82    81    1
   121    50    47    1
   122    60    48   am
   123   146   145    1
   124   146   148    1
   125    38    41    1
   126    38    39    1
   127    73    72    1
   128    73    75    1
   129    91    89    1
   130    41    42    1
   131   105   106    2
   132    42    43    1
   133    81    80    1
   134    39    40    2
   135    72    69    1
   136    43    45   ar
   137   145   142    1
   138    48    47    1
   139    48    49    2
   140    62    63    2
   141   141   142    1
   142    47    46    1
   143    90    89    1
   144    89    88    1
   145   142   143    1
   146    80    77    1
   147   102   100    1
   148    69    70    1
   149    69    68    1
   150    76    70   am
   151    76    77    1
   152    88    85    1
   153    70    71    2
   154   143   144    2
   155    77    78    1
   156   100    99    2
   157   100   101    1
   158    99    98    1
   159    85    84    1
   160    85    86    1
   161    78    79    2
   162    86    87    2
   163    98    97    1
   164    97    96    1
   165    96    93    1
   166    94    95    2
   167    94    93    1
   168    93    92    1
