@<TRIPOS>MOLECULE
tmp/2qgwA01.pdb
 167 156 0 0 0
SMALL
GASTEIGER

@<TRIPOS>ATOM
      1  N         20.8590    8.2260   40.1060 N.3    39  MET39      -0.1245
      2  CA        20.8990    6.9280   39.4400 C.3    39  MET39       0.1570
      3  C         20.4350    5.7940   40.3800 C.2    39  MET39       0.2261
      4  O         19.7360    4.8690   39.9550 O.2    39  MET39      -0.2867
      5  CB        22.3300    6.6800   38.9350 C.3    39  MET39       0.0387
      6  CG        22.4630    6.0420   37.5880 C.3    39  MET39       0.0595
      7  SD        21.5620    6.8090   36.2020 S.3    39  MET39      -0.1393
      8  CE        20.9870    5.2710   35.4870 C.3    39  MET39       0.0692
      9  N         16.6560    6.1110   40.5240 N.3    42  LEU42      -0.1231
     10  CA        16.0720    5.5890   39.3030 C.3    42  LEU42       0.1693
     11  C         16.0290    4.0590   39.2920 C.2    42  LEU42       0.2592
     12  O         15.0030    3.4700   38.9550 O.2    42  LEU42      -0.2718
     13  CB        16.8490    6.1150   38.0960 C.3    42  LEU42       0.0284
     14  CG        16.3620    7.4440   37.4860 C.3    42  LEU42       0.0019
     15  CD1       15.9160    8.4320   38.5390 C.3    42  LEU42       0.0001
     16  CD2       17.4570    8.0750   36.6020 C.3    42  LEU42       0.0001
     17  N         17.1330    3.4190   39.6800 N.am   43  THR43      -0.1953
     18  CA        17.2200    1.9530   39.6440 C.3    43  THR43       0.1897
     19  C         16.4830    1.2890   40.8090 C.2    43  THR43       0.2313
     20  O         15.8270    0.2800   40.6130 O.2    43  THR43      -0.2863
     21  CB        18.6910    1.4600   39.5810 C.3    43  THR43       0.1794
     22  OG1       19.4490    2.0000   40.6680 O.3    43  THR43      -0.2208
     23  CG2       19.3350    1.8840   38.2540 C.3    43  THR43       0.0378
     24  N         13.8130    2.5090   42.2360 N.3    45  LEU45      -0.1231
     25  CA        12.4220    2.6120   41.7790 C.3    45  LEU45       0.1693
     26  C         12.0460    1.5100   40.7610 C.2    45  LEU45       0.2591
     27  O         11.0310    0.8170   40.9040 O.2    45  LEU45      -0.2718
     28  CB        12.1980    3.9940   41.1600 C.3    45  LEU45       0.0284
     29  CG        10.8330    4.2480   40.5460 C.3    45  LEU45       0.0019
     30  CD1        9.7400    4.0220   41.5780 C.3    45  LEU45       0.0001
     31  CD2       10.7590    5.6570   39.9590 C.3    45  LEU45       0.0001
     32  N         12.8860    1.3760   39.7450 N.am   46  ALA46      -0.1980
     33  CA        12.6930    0.4540   38.6450 C.3    46  ALA46       0.1597
     34  C         12.6460   -0.9730   39.1270 C.2    46  ALA46       0.2287
     35  O         11.8450   -1.7750   38.6370 O.2    46  ALA46      -0.2864
     36  CB        13.8230    0.6320   37.5890 C.3    46  ALA46       0.0319
     37  N          9.2030   -1.3680   40.7830 N.3    49  GLU49      -0.1245
     38  CA         8.2020   -1.4060   39.7340 C.3    49  GLU49       0.1567
     39  C          8.2250   -2.7100   38.9500 C.2    49  GLU49       0.2260
     40  O          7.1920   -3.1650   38.4540 O.2    49  GLU49      -0.2867
     41  CB         8.4270   -0.2860   38.7510 C.3    49  GLU49       0.0388
     42  CG         8.0430    1.0630   39.2470 C.3    49  GLU49       0.1160
     43  CD         8.2430    2.0580   38.1610 C.2    49  GLU49       0.3649
     44  OE1        9.4070    2.3940   37.9080 O.co2  49  GLU49      -0.2457
     45  OE2        7.2550    2.4510   37.5250 O.co2  49  GLU49      -0.2457
     46  N         10.7050   -5.0720   29.1900 N.3    79  TRP79      -0.1227
     47  CA        10.5320   -4.4820   30.5320 C.3    79  TRP79       0.1737
     48  C         10.8220   -2.9830   30.6090 C.2    79  TRP79       0.2595
     49  O         10.1110   -2.2640   31.3080 O.2    79  TRP79      -0.2718
     50  CB        11.3590   -5.2100   31.6060 C.3    79  TRP79       0.0564
     51  CG        12.8540   -5.0530   31.4540 C.ar   79  TRP79       0.0003
     52  CD1       13.6750   -5.8390   30.7260 C.ar   79  TRP79       0.0946
     53  CD2       13.6920   -4.0590   32.0700 C.ar   79  TRP79       0.0152
     54  NE1       14.9720   -5.4010   30.8220 N.ar   79  TRP79      -0.2442
     55  CE2       15.0120   -4.3050   31.6390 C.ar   79  TRP79       0.0810
     56  CE3       13.4530   -2.9810   32.9240 C.ar   79  TRP79       0.0012
     57  CZ2       16.1000   -3.5220   32.0490 C.ar   79  TRP79       0.0191
     58  CZ3       14.5450   -2.1930   33.3290 C.ar   79  TRP79       0.0001
     59  CH2       15.8450   -2.4770   32.8980 C.ar   79  TRP79       0.0015
     60  N         11.8840   -2.5220   29.9460 N.am   80  LEU80      -0.1980
     61  CA        12.2380   -1.1110   30.0000 C.3    80  LEU80       0.1596
     62  C         11.3080   -0.2890   29.0970 C.2    80  LEU80       0.2287
     63  O         11.0480    0.8700   29.3800 O.2    80  LEU80      -0.2864
     64  CB        13.7240   -0.8670   29.6430 C.3    80  LEU80       0.0297
     65  CG        14.1730    0.6040   29.7840 C.3    80  LEU80       0.0022
     66  CD1       14.0750    1.0720   31.2560 C.3    80  LEU80       0.0001
     67  CD2       15.5720    0.8340   29.2370 C.3    80  LEU80       0.0001
     68  N          8.3160    0.2560   31.4200 N.3    83  LEU83      -0.1231
     69  CA         8.6500    1.2910   32.3970 C.3    83  LEU83       0.1693
     70  C          8.6340    2.6790   31.7820 C.2    83  LEU83       0.2591
     71  O          8.0860    3.6130   32.3650 O.2    83  LEU83      -0.2718
     72  CB        10.0240    1.0270   33.0370 C.3    83  LEU83       0.0284
     73  CG        10.1290   -0.0950   34.0740 C.3    83  LEU83       0.0019
     74  CD1       11.5950   -0.2120   34.6030 C.3    83  LEU83       0.0001
     75  CD2        9.1420    0.1390   35.2300 C.3    83  LEU83       0.0001
     76  N          9.2190    2.8190   30.5950 N.am   84  MET84      -0.1979
     77  CA         9.2700    4.1280   29.9220 C.3    84  MET84       0.1605
     78  C          7.9020    4.6480   29.4710 C.2    84  MET84       0.2287
     79  O          7.5960    5.8320   29.6550 O.2    84  MET84      -0.2864
     80  CB        10.2600    4.1070   28.7570 C.3    84  MET84       0.0413
     81  CG        11.7040    4.0730   29.2420 C.3    84  MET84       0.0598
     82  SD        12.9280    4.0490   27.9250 S.3    84  MET84      -0.1393
     83  CE        14.3590    4.7890   28.7040 C.3    84  MET84       0.0692
     84  N          6.3180    5.9820   32.4530 N.3    87  LEU87      -0.1245
     85  CA         6.9110    7.2750   32.7930 C.3    87  LEU87       0.1561
     86  C          6.3570    8.4110   31.9440 C.2    87  LEU87       0.2260
     87  O          5.9790    9.4810   32.4530 O.2    87  LEU87      -0.2867
     88  CB         8.4310    7.1780   32.6290 C.3    87  LEU87       0.0270
     89  CG         9.2430    8.4470   32.8550 C.3    87  LEU87       0.0019
     90  CD1        8.9830    9.0120   34.2570 C.3    87  LEU87       0.0001
     91  CD2       10.7470    8.1510   32.6160 C.3    87  LEU87       0.0001
     92  N          2.5840    9.2070   32.9230 N.3    90  ARG90      -0.1245
     93  CA         2.3200    9.9960   34.1270 C.3    90  ARG90       0.1563
     94  C          2.9560   11.3870   34.0490 C.2    90  ARG90       0.2260
     95  O          2.4580   12.3240   34.6770 O.2    90  ARG90      -0.2867
     96  CB         2.6350    9.2420   35.4360 C.3    90  ARG90       0.0307
     97  CG         3.8950    8.4700   35.4910 C.3    90  ARG90       0.0489
     98  CD         4.0510    7.6580   36.7660 C.3    90  ARG90       0.2205
     99  NE         5.4600    7.2780   36.8500 N.pl3  90  ARG90      -0.0865
    100  CZ         5.9820    6.1520   36.3650 C.cat  90  ARG90       0.5346
    101  NH1        5.2220    5.2050   35.8260 N.pl3  90  ARG90       0.1354
    102  NH2        7.2850    5.9480   36.4610 N.pl3  90  ARG90       0.1354
    103  N          8.9400   10.4280   37.3750 N.3   100  PHE100     -0.1241
    104  CA         9.3720    9.0850   37.8110 C.3   100  PHE100      0.1605
    105  C          8.5130    8.5730   38.9660 C.2   100  PHE100      0.2264
    106  O          8.1010    7.4110   38.9630 O.2   100  PHE100     -0.2867
    107  CB        10.8530    9.0800   38.2110 C.3   100  PHE100      0.0534
    108  CG        11.7940    9.2230   37.0420 C.ar  100  PHE100     -0.0203
    109  CD1       12.2610    8.0940   36.3590 C.ar  100  PHE100     -0.0042
    110  CD2       12.2060   10.4810   36.6160 C.ar  100  PHE100     -0.0042
    111  CE1       13.1250    8.2230   35.2690 C.ar  100  PHE100     -0.0003
    112  CE2       13.0840   10.6260   35.5310 C.ar  100  PHE100     -0.0003
    113  CZ        13.5400    9.4980   34.8570 C.ar  100  PHE100     -0.0000
    114  N         22.6590   11.2890   30.3330 N.3   117  MET117     -0.1245
    115  CA        21.2530   11.0910   30.6760 C.3   117  MET117      0.1570
    116  C         20.3240   12.0400   29.9390 C.2   117  MET117      0.2261
    117  O         19.2100   11.6600   29.5960 O.2   117  MET117     -0.2867
    118  CB        21.0290   11.2260   32.1850 C.3   117  MET117      0.0387
    119  CG        19.5670   11.0620   32.6290 C.3   117  MET117      0.0595
    120  SD        18.9750    9.3700   32.3960 S.3   117  MET117     -0.1393
    121  CE        19.6500    8.6300   33.8850 C.3   117  MET117      0.0692
    122  N         18.5620   11.0830   26.8860 N.3   120  ILE120     -0.1245
    123  CA        17.4680   10.1500   27.1240 C.3   120  ILE120      0.1561
    124  C         16.2300   10.9300   27.6100 C.2   120  ILE120      0.2260
    125  O         15.1370   10.7520   27.0500 O.2   120  ILE120     -0.2867
    126  CB        17.8970    8.9820   28.0440 C.3   120  ILE120      0.0252
    127  CG1       19.1000    8.2700   27.4130 C.3   120  ILE120      0.0019
    128  CG2       16.7520    7.9650   28.2180 C.3   120  ILE120      0.0019
    129  CD1       19.5760    7.0170   28.1320 C.3   120  ILE120      0.0001
    130  N         12.3320   11.1880   26.0640 N.3   124  LEU124     -0.1245
    131  CA        11.1980   10.8890   26.9310 C.3   124  LEU124      0.1561
    132  C         10.2240   12.0750   26.9680 C.2   124  LEU124      0.2260
    133  O          9.0040   11.8830   26.8280 O.2   124  LEU124     -0.2867
    134  CB        11.6700   10.5230   28.3450 C.3   124  LEU124      0.0270
    135  CG        12.3580    9.1520   28.4550 C.3   124  LEU124      0.0019
    136  CD1       13.1780    9.0170   29.7390 C.3   124  LEU124      0.0001
    137  CD2       11.3430    8.0240   28.3520 C.3   124  LEU124      0.0001
    138  N         18.3910    3.4610   26.4740 N.3   209  GLY209     -0.1225
    139  CA        18.4790    3.4220   27.9210 C.3   209  GLY209      0.1811
    140  C         19.1220    2.1440   28.4170 C.2   209  GLY209      0.2280
    141  O         19.8110    2.1600   29.4440 O.2   209  GLY209     -0.2866
    142  N         22.7340    2.8930   28.1900 N.3   212  HIS212     -0.1226
    143  CA        23.1430    3.8240   29.2170 C.3   212  HIS212      0.1752
    144  C         23.2140    3.1030   30.5620 C.2   212  HIS212      0.2595
    145  O         24.1830    3.2580   31.3040 O.2   212  HIS212     -0.2718
    146  CB        22.1400    4.9760   29.2970 C.3   212  HIS212      0.0759
    147  CG        22.5430    6.0680   30.2350 C.ar  212  HIS212      0.0818
    148  ND1       22.0310    6.1800   31.5090 N.ar  212  HIS212     -0.2268
    149  CD2       23.3940    7.1110   30.0770 C.ar  212  HIS212      0.1154
    150  CE1       22.5540    7.2380   32.1010 C.ar  212  HIS212      0.1986
    151  NE2       23.3880    7.8210   31.2550 N.ar  212  HIS212     -0.2212
    152  N         22.1850    2.3140   30.8630 N.am  213  LEU213     -0.1980
    153  CA        22.1680    1.4960   32.0760 C.3   213  LEU213      0.1596
    154  C         23.3760    0.5570   32.1320 C.2   213  LEU213      0.2287
    155  O         23.9900    0.3810   33.1860 O.2   213  LEU213     -0.2864
    156  CB        20.8520    0.7110   32.1780 C.3   213  LEU213      0.0297
    157  CG        20.6750   -0.1660   33.4150 C.3   213  LEU213      0.0022
    158  CD1       20.9210    0.6540   34.6720 C.3   213  LEU213      0.0001
    159  CD2       19.2940   -0.8520   33.4450 C.3   213  LEU213      0.0001
    160  N         17.4540   -6.5780   38.5100 N.3   228  LEU228     -0.1245
    161  CA        17.7360   -5.5950   37.4640 C.3   228  LEU228      0.1561
    162  C         18.9320   -6.0240   36.5890 C.2   228  LEU228      0.2260
    163  O         18.8680   -5.9320   35.3530 O.2   228  LEU228     -0.2867
    164  CB        17.9460   -4.2000   38.0780 C.3   228  LEU228      0.0270
    165  CG        17.7920   -2.9810   37.1520 C.3   228  LEU228      0.0019
    166  CD1       16.7130   -3.1780   36.0990 C.3   228  LEU228      0.0001
    167  CD2       17.5040   -1.7150   37.9650 C.3   228  LEU228      0.0001
@<TRIPOS>BOND
     1   130   131    1
     2   138   139    1
     3   133   132    2
     4   122   123    1
     5   131   132    1
     6   131   134    1
     7   125   124    2
     8   123   124    1
     9   123   126    1
    10   127   126    1
    11   127   129    1
    12   139   140    1
    13    82    83    1
    14    82    81    1
    15   126   128    1
    16   142   143    1
    17   134   135    1
    18   137   135    1
    19   140   141    2
    20   135   136    1
    21    80    81    1
    22    80    77    1
    23    62    63    2
    24    62    61    1
    25    46    47    1
    26   143   146    1
    27   143   144    1
    28    67    65    1
    29   146   147    1
    30    78    79    2
    31    78    77    1
    32   117   116    2
    33    64    65    1
    34    64    61    1
    35    65    66    1
    36    77    76    1
    37   116   115    1
    38    60    61    1
    39    60    48   am
    40   149   147   ar
    41   149   151   ar
    42   147   148   ar
    43   114   115    1
    44    47    48    1
    45    47    50    1
    46   144   152   am
    47   144   145    2
    48    76    70   am
    49    48    49    2
    50   115   118    1
    51    52    54   ar
    52    52    51   ar
    53    54    55   ar
    54   152   153    1
    55   151   150   ar
    56    68    69    1
    57    51    50    1
    58    51    53   ar
    59   148   150   ar
    60    55    57   ar
    61    55    53   ar
    62    70    71    2
    63    70    69    1
    64    86    87    2
    65    86    85    1
    66    57    59   ar
    67    53    56   ar
    68   153   154    1
    69   153   156    1
    70   154   155    2
    71   156   157    1
    72   118   119    1
    73   120   119    1
    74   120   121    1
    75    69    72    1
    76    84    85    1
    77    91    89    1
    78    88    85    1
    79    88    89    1
    80    89    90    1
    81    59    58   ar
    82    92    93    1
    83    56    58   ar
    84    72    73    1
    85   157   159    1
    86   157   158    1
    87    94    93    1
    88    94    95    2
    89    73    74    1
    90    73    75    1
    91    93    96    1
    92   113   111   ar
    93   113   112   ar
    94   111   109   ar
    95   163   162    2
    96    96    97    1
    97     8     7    1
    98    97    98    1
    99   112   110   ar
   100   101   100    1
   101   166   165    1
   102     7     6    1
   103   109   108   ar
   104   100   102    1
   105   100    99    2
   106   162   161    1
   107    16    14    1
   108   110   108   ar
   109    98    99    1
   110   108   107    1
   111   165   167    1
   112   165   164    1
   113   103   104    1
   114   161   164    1
   115   161   160    1
   116    14    13    1
   117    14    15    1
   118    45    43   ar
   119     6     5    1
   120    36    33    1
   121   104   107    1
   122   104   105    1
   123    44    43   ar
   124    13    10    1
   125    43    42    1
   126    23    21    1
   127    40    39    2
   128    35    34    2
   129    33    34    1
   130    33    32    1
   131    41    42    1
   132    41    38    1
   133     5     2    1
   134    39    38    1
   135    12    11    2
   136   106   105    2
   137    11    10    1
   138    11    17   am
   139    10     9    1
   140     2     1    1
   141     2     3    1
   142    21    18    1
   143    21    22    1
   144    18    17    1
   145    18    19    1
   146    38    37    1
   147    32    26   am
   148     4     3    2
   149    31    29    1
   150    29    28    1
   151    29    30    1
   152    20    19    2
   153    26    27    2
   154    26    25    1
   155    28    25    1
   156    25    24    1
