@<TRIPOS>MOLECULE
tmp/2qh6A01.pdb
 201 188 0 0 0
SMALL
GASTEIGER

@<TRIPOS>ATOM
      1  N         -7.7060    7.1700   40.8760 N.3    38  MET38      -0.1245
      2  CA        -7.7930    5.8890   40.2490 C.3    38  MET38       0.1570
      3  C         -8.1720    4.7610   41.1920 C.2    38  MET38       0.2261
      4  O         -8.6700    3.7470   40.7490 O.2    38  MET38      -0.2867
      5  CB        -6.5090    5.5740   39.5530 C.3    38  MET38       0.0387
      6  CG        -6.6850    4.7190   38.3150 C.3    38  MET38       0.0595
      7  SD        -7.7320    5.4470   37.0210 S.3    38  MET38      -0.1393
      8  CE        -7.6260    4.1000   35.8390 C.3    38  MET38       0.0692
      9  N        -12.0130    5.1710   41.2930 N.3    41  LEU41      -0.1231
     10  CA       -12.7010    4.6110   40.1390 C.3    41  LEU41       0.1693
     11  C        -12.6990    3.1080   40.1680 C.2    41  LEU41       0.2592
     12  O        -13.6620    2.4780   39.7880 O.2    41  LEU41      -0.2718
     13  CB       -12.1070    5.1350   38.8320 C.3    41  LEU41       0.0284
     14  CG       -12.3520    6.6510   38.6250 C.3    41  LEU41       0.0019
     15  CD1      -12.1110    7.0630   37.1900 C.3    41  LEU41       0.0001
     16  CD2      -13.7360    7.0670   39.0880 C.3    41  LEU41       0.0001
     17  N        -11.5980    2.5220   40.5960 N.am   42  THR42      -0.1953
     18  CA       -11.5330    1.0810   40.6690 C.3    42  THR42       0.1897
     19  C        -12.3580    0.4940   41.8470 C.2    42  THR42       0.2313
     20  O        -12.7940   -0.6360   41.7770 O.2    42  THR42      -0.2863
     21  CB       -10.0600    0.5100   40.6580 C.3    42  THR42       0.1794
     22  OG1      -10.0200   -0.7080   41.4220 O.3    42  THR42      -0.2208
     23  CG2       -9.0480    1.4260   41.2500 C.3    42  THR42       0.0378
     24  N        -15.2880    1.8300   42.9300 N.3    44  LEU44      -0.1231
     25  CA       -16.6190    2.0220   42.4150 C.3    44  LEU44       0.1693
     26  C        -16.9090    1.0050   41.3300 C.2    44  LEU44       0.2591
     27  O        -17.9720    0.3350   41.3460 O.2    44  LEU44      -0.2718
     28  CB       -16.7370    3.4250   41.8740 C.3    44  LEU44       0.0284
     29  CG       -17.9820    3.7180   41.0810 C.3    44  LEU44       0.0019
     30  CD1      -19.1040    4.0610   41.9960 C.3    44  LEU44       0.0001
     31  CD2      -17.7080    4.8980   40.1960 C.3    44  LEU44       0.0001
     32  N        -15.9550    0.8270   40.4300 N.am   45  ALA45      -0.1980
     33  CA       -16.1950   -0.0370   39.2790 C.3    45  ALA45       0.1597
     34  C        -16.3100   -1.4670   39.6940 C.2    45  ALA45       0.2287
     35  O        -17.1240   -2.1920   39.1720 O.2    45  ALA45      -0.2864
     36  CB       -15.1160    0.1340   38.2450 C.3    45  ALA45       0.0319
     37  N        -19.5920   -1.9570   40.9740 N.3    48  GLU48      -0.1245
     38  CA       -20.5900   -1.8790   39.8980 C.3    48  GLU48       0.1567
     39  C        -20.6340   -3.1560   39.1280 C.2    48  GLU48       0.2260
     40  O        -21.7150   -3.6070   38.6760 O.2    48  GLU48      -0.2867
     41  CB       -20.2740   -0.7490   38.9360 C.3    48  GLU48       0.0388
     42  CG       -20.4870    0.5770   39.5820 C.3    48  GLU48       0.1160
     43  CD       -20.3390    1.7330   38.6250 C.2    48  GLU48       0.3649
     44  OE1      -19.2500    1.9750   38.0240 O.co2  48  GLU48      -0.2457
     45  OE2      -21.3520    2.4210   38.4760 O.co2  48  GLU48      -0.2457
     46  N        -18.2570   -5.8250   29.6620 N.3    78  TRP78      -0.1227
     47  CA       -18.1730   -5.1080   30.9470 C.3    78  TRP78       0.1737
     48  C        -17.8550   -3.6520   30.8660 C.2    78  TRP78       0.2595
     49  O        -18.5620   -2.8870   31.4240 O.2    78  TRP78      -0.2718
     50  CB       -17.2670   -5.7720   31.9530 C.3    78  TRP78       0.0564
     51  CG       -15.7760   -5.6310   31.7450 C.ar   78  TRP78       0.0003
     52  CD1      -14.9630   -6.4520   31.0160 C.ar   78  TRP78       0.0946
     53  CD2      -14.9220   -4.6450   32.3310 C.ar   78  TRP78       0.0152
     54  NE1      -13.6550   -6.0080   31.0750 N.ar   78  TRP78      -0.2442
     55  CE2      -13.6040   -4.9210   31.9010 C.ar   78  TRP78       0.0810
     56  CE3      -15.1500   -3.5310   33.1570 C.ar   78  TRP78       0.0012
     57  CZ2      -12.5270   -4.1510   32.2780 C.ar   78  TRP78       0.0191
     58  CZ3      -14.0680   -2.7390   33.5260 C.ar   78  TRP78       0.0001
     59  CH2      -12.7640   -3.0640   33.0940 C.ar   78  TRP78       0.0015
     60  N        -16.8260   -3.2120   30.1970 N.am   79  LEU79      -0.1980
     61  CA       -16.4950   -1.7560   30.2900 C.3    79  LEU79       0.1596
     62  C        -17.3490   -0.8800   29.3800 C.2    79  LEU79       0.2287
     63  O        -17.4330    0.3150   29.5920 O.2    79  LEU79      -0.2864
     64  CB       -15.0280   -1.4860   30.0480 C.3    79  LEU79       0.0297
     65  CG       -14.6210   -0.0450   29.9480 C.3    79  LEU79       0.0022
     66  CD1      -14.8680    0.7290   31.2390 C.3    79  LEU79       0.0001
     67  CD2      -13.1420   -0.0020   29.6220 C.3    79  LEU79       0.0001
     68  N        -20.4040   -0.3490   31.8070 N.3    82  LEU82      -0.1231
     69  CA       -20.0940    0.7600   32.7030 C.3    82  LEU82       0.1693
     70  C        -20.0550    2.0920   31.9270 C.2    82  LEU82       0.2591
     71  O        -20.6060    3.0850   32.3950 O.2    82  LEU82      -0.2718
     72  CB       -18.7780    0.5220   33.4730 C.3    82  LEU82       0.0284
     73  CG       -18.7760   -0.7490   34.3090 C.3    82  LEU82       0.0019
     74  CD1      -17.3860   -1.0020   34.8000 C.3    82  LEU82       0.0001
     75  CD2      -19.7630   -0.5350   35.4630 C.3    82  LEU82       0.0001
     76  N        -19.4410    2.1370   30.7360 N.am   83  MET83      -0.1979
     77  CA       -19.4380    3.4420   30.0480 C.3    83  MET83       0.1605
     78  C        -20.8390    3.9100   29.6980 C.2    83  MET83       0.2287
     79  O        -21.1940    5.0540   29.9480 O.2    83  MET83      -0.2864
     80  CB       -18.5300    3.4700   28.8360 C.3    83  MET83       0.0413
     81  CG       -17.1570    3.8370   29.2160 C.3    83  MET83       0.0598
     82  SD       -16.1090    3.0840   28.0400 S.3    83  MET83      -0.1393
     83  CE       -14.4720    3.7750   28.4470 C.3    83  MET83       0.0692
     84  N        -22.3450    5.2910   32.7510 N.3    86  LEU86      -0.1245
     85  CA       -21.7830    6.5920   33.1290 C.3    86  LEU86       0.1561
     86  C        -22.3830    7.6920   32.2290 C.2    86  LEU86       0.2260
     87  O        -22.9430    8.6900   32.6930 O.2    86  LEU86      -0.2867
     88  CB       -20.2610    6.5540   33.0340 C.3    86  LEU86       0.0270
     89  CG       -19.4980    7.8570   33.0200 C.3    86  LEU86       0.0019
     90  CD1      -19.4950    8.4890   34.3980 C.3    86  LEU86       0.0001
     91  CD2      -18.0780    7.5870   32.5930 C.3    86  LEU86       0.0001
     92  N        -26.0400    8.4710   33.1130 N.3    89  ARG89      -0.1245
     93  CA       -26.3710    9.1950   34.3170 C.3    89  ARG89       0.1563
     94  C        -25.7220   10.5830   34.3510 C.2    89  ARG89       0.2260
     95  O        -26.1240   11.4410   35.1550 O.2    89  ARG89      -0.2867
     96  CB       -25.9910    8.3940   35.5260 C.3    89  ARG89       0.0307
     97  CG       -24.5270    8.3660   35.8110 C.3    89  ARG89       0.0489
     98  CD       -24.2720    7.4700   37.0190 C.3    89  ARG89       0.2205
     99  NE       -22.8800    7.0510   37.0860 N.pl3  89  ARG89      -0.0865
    100  CZ       -22.4870    5.8300   36.7690 C.cat  89  ARG89       0.5346
    101  NH1      -23.3930    4.9370   36.3840 N.pl3  89  ARG89       0.1354
    102  NH2      -21.2100    5.5140   36.8350 N.pl3  89  ARG89       0.1354
    103  N        -18.9620   14.3780   33.9670 N.3    97  LEU97      -0.1245
    104  CA       -19.2630   12.9700   34.0760 C.3    97  LEU97       0.1561
    105  C        -19.6700   12.6330   35.4820 C.2    97  LEU97       0.2260
    106  O        -18.9470   12.9200   36.4350 O.2    97  LEU97      -0.2867
    107  CB       -18.0480   12.1660   33.7000 C.3    97  LEU97       0.0270
    108  CG       -17.6770   12.3470   32.2400 C.3    97  LEU97       0.0019
    109  CD1      -16.3740   11.6350   32.0100 C.3    97  LEU97       0.0001
    110  CD2      -18.7580   11.7670   31.3110 C.3    97  LEU97       0.0001
    111  N        -19.6330   10.0600   37.7540 N.3    99  PHE99      -0.1241
    112  CA       -19.2020    8.7580   38.2000 C.3    99  PHE99       0.1605
    113  C        -20.0850    8.2380   39.3020 C.2    99  PHE99       0.2264
    114  O        -20.6100    7.1470   39.1790 O.2    99  PHE99      -0.2867
    115  CB       -17.7250    8.7650   38.5490 C.3    99  PHE99       0.0534
    116  CG       -16.8370    8.7840   37.3200 C.ar   99  PHE99      -0.0203
    117  CD1      -16.4480    7.5780   36.6880 C.ar   99  PHE99      -0.0042
    118  CD2      -16.4230    9.9970   36.7610 C.ar   99  PHE99      -0.0042
    119  CE1      -15.6290    7.5990   35.4870 C.ar   99  PHE99      -0.0003
    120  CE2      -15.6280   10.0290   35.5810 C.ar   99  PHE99      -0.0003
    121  CZ       -15.2090    8.8420   34.9580 C.ar   99  PHE99      -0.0000
    122  N         -4.7640   11.6160   35.1960 N.3   113  VAL113     -0.1245
    123  CA        -4.3790   10.3350   34.6140 C.3   113  VAL113      0.1561
    124  C         -4.0850   10.4820   33.1250 C.2   113  VAL113      0.2260
    125  O         -4.7470   11.2450   32.4060 O.2   113  VAL113     -0.2867
    126  CB        -5.4650    9.2480   34.8310 C.3   113  VAL113      0.0252
    127  CG1       -4.9610    7.8860   34.3750 C.3   113  VAL113      0.0019
    128  CG2       -5.9050    9.1880   36.2890 C.3   113  VAL113      0.0019
    129  N         -6.5900    9.8970   29.9350 N.3   116  MET116     -0.1245
    130  CA        -7.9250    9.8140   30.4640 C.3   116  MET116      0.1570
    131  C         -8.7430   10.9450   29.8880 C.2   116  MET116      0.2261
    132  O         -9.9350   10.8030   29.7220 O.2   116  MET116     -0.2867
    133  CB        -7.8970    9.9070   31.9930 C.3   116  MET116      0.0387
    134  CG        -9.2690   10.1600   32.6100 C.3   116  MET116      0.0595
    135  SD        -9.2760   10.3910   34.3890 S.3   116  MET116     -0.1393
    136  CE       -11.0030   10.0330   34.7580 C.3   116  MET116      0.0692
    137  N        -10.5790   10.1450   26.5270 N.3   119  ILE119     -0.1231
    138  CA       -11.7340    9.2820   26.7480 C.3   119  ILE119      0.1692
    139  C        -12.8410   10.1090   27.3370 C.2   119  ILE119      0.2592
    140  O        -13.9490   10.1400   26.7930 O.2   119  ILE119     -0.2718
    141  CB       -11.4070    8.0700   27.6550 C.3   119  ILE119      0.0266
    142  CG1      -10.1700    7.3250   27.1570 C.3   119  ILE119      0.0019
    143  CG2      -12.5430    7.1010   27.6910 C.3   119  ILE119      0.0020
    144  CD1       -9.5790    6.3340   28.1720 C.3   119  ILE119      0.0001
    145  N        -12.5140   10.8090   28.4210 N.am  120  PHE120     -0.1976
    146  CA       -13.3580   11.8510   28.9940 C.3   120  PHE120      0.1639
    147  C        -14.1630   12.5900   27.9130 C.2   120  PHE120      0.2290
    148  O        -15.3810   12.6130   27.9720 O.2   120  PHE120     -0.2864
    149  CB       -12.5090   12.8670   29.7950 C.3   120  PHE120      0.0560
    150  CG       -13.2970   13.6100   30.8240 C.ar  120  PHE120     -0.0200
    151  CD1      -14.2120   14.6140   30.4450 C.ar  120  PHE120     -0.0042
    152  CD2      -13.2080   13.2500   32.1730 C.ar  120  PHE120     -0.0042
    153  CE1      -15.0240   15.2530   31.4080 C.ar  120  PHE120     -0.0003
    154  CE2      -13.9770   13.8960   33.1400 C.ar  120  PHE120     -0.0003
    155  CZ       -14.8970   14.8910   32.7710 C.ar  120  PHE120     -0.0000
    156  N        -16.6670   10.3300   25.9900 N.3   123  LEU123     -0.1245
    157  CA       -17.8730   10.1280   26.8100 C.3   123  LEU123      0.1561
    158  C        -18.7660   11.3610   26.8110 C.2   123  LEU123      0.2260
    159  O        -19.9940   11.2450   26.7550 O.2   123  LEU123     -0.2867
    160  CB       -17.5050    9.7770   28.2210 C.3   123  LEU123      0.0270
    161  CG       -16.7710    8.4580   28.3480 C.3   123  LEU123      0.0019
    162  CD1      -16.0300    8.4340   29.6790 C.3   123  LEU123      0.0001
    163  CD2      -17.7510    7.2610   28.2390 C.3   123  LEU123      0.0001
    164  N        -10.3420    2.6500   26.6510 N.3   206  GLY206     -0.1225
    165  CA       -10.2290    2.6770   28.0910 C.3   206  GLY206      0.1811
    166  C         -9.5280    1.4270   28.5270 C.2   206  GLY206      0.2280
    167  O         -8.7490    1.4620   29.4800 O.2   206  GLY206     -0.2866
    168  N         -5.7700    1.5390   28.1710 N.3   209  HIS209     -0.1226
    169  CA        -5.1620    2.4340   29.1280 C.3   209  HIS209      0.1752
    170  C         -5.2010    1.7880   30.4950 C.2   209  HIS209      0.2595
    171  O         -4.2600    1.9210   31.2550 O.2   209  HIS209     -0.2718
    172  CB        -5.8110    3.8100   29.1600 C.3   209  HIS209      0.0759
    173  CG        -5.2650    4.6720   30.2470 C.ar  209  HIS209      0.0818
    174  ND1       -6.0690    5.2760   31.1970 N.ar  209  HIS209     -0.2268
    175  CD2       -3.9850    4.9730   30.5790 C.ar  209  HIS209      0.1154
    176  CE1       -5.3080    5.9490   32.0400 C.ar  209  HIS209      0.1986
    177  NE2       -4.0390    5.7820   31.6880 N.ar  209  HIS209     -0.2212
    178  N         -6.3010    1.1230   30.8170 N.am  210  LEU210     -0.1980
    179  CA        -6.3370    0.2510   31.9830 C.3   210  LEU210      0.1596
    180  C         -5.1790   -0.7410   31.9520 C.2   210  LEU210      0.2287
    181  O         -4.5910   -1.0600   32.9840 O.2   210  LEU210     -0.2864
    182  CB        -7.6430   -0.5500   32.0240 C.3   210  LEU210      0.0297
    183  CG        -8.7610   -0.1730   33.0000 C.3   210  LEU210      0.0022
    184  CD1       -8.3570    1.0230   33.8800 C.3   210  LEU210      0.0001
    185  CD2      -10.0880    0.0490   32.2840 C.3   210  LEU210      0.0001
    186  N         -5.3620   -3.1540   41.3320 N.3   220  LEU220     -0.1245
    187  CA        -6.6940   -3.4600   40.8760 C.3   220  LEU220      0.1561
    188  C         -7.2950   -4.6430   41.6670 C.2   220  LEU220      0.2260
    189  O         -6.5670   -5.4860   42.2240 O.2   220  LEU220     -0.2867
    190  CB        -6.6540   -3.7620   39.3890 C.3   220  LEU220      0.0270
    191  CG        -6.1770   -2.6650   38.4490 C.3   220  LEU220      0.0019
    192  CD1       -6.9170   -2.8330   37.1270 C.3   220  LEU220      0.0001
    193  CD2       -6.4470   -1.2810   39.0360 C.3   220  LEU220      0.0001
    194  N        -11.3840   -7.3950   38.7960 N.3   224  LEU224     -0.1245
    195  CA       -11.0550   -6.4830   37.7580 C.3   224  LEU224      0.1561
    196  C         -9.8300   -6.9240   36.9750 C.2   224  LEU224      0.2260
    197  O         -9.7320   -6.6560   35.7790 O.2   224  LEU224     -0.2867
    198  CB       -10.8500   -5.1000   38.3420 C.3   224  LEU224      0.0270
    199  CG       -12.1200   -4.2490   38.3230 C.3   224  LEU224      0.0019
    200  CD1      -11.8780   -3.0460   39.2130 C.3   224  LEU224      0.0001
    201  CD2      -12.4720   -3.8040   36.8740 C.3   224  LEU224      0.0001
@<TRIPOS>BOND
     1   156   157    1
     2   137   138    1
     3   164   165    1
     4   138   139    1
     5   138   141    1
     6   159   158    2
     7   140   139    2
     8   157   158    1
     9   157   160    1
    10   142   141    1
    11   142   144    1
    12   139   145   am
    13   141   143    1
    14   147   148    2
    15   147   146    1
    16    82    83    1
    17    82    81    1
    18   165   166    1
    19   168   169    1
    20   160   161    1
    21   163   161    1
    22   161   162    1
    23   145   146    1
    24   166   167    2
    25    80    81    1
    26    80    77    1
    27   146   149    1
    28   169   172    1
    29   169   170    1
    30   172   173    1
    31    62    63    2
    32    62    61    1
    33    67    65    1
    34    46    47    1
    35    78    79    2
    36    78    77    1
    37   132   131    2
    38   149   150    1
    39   131   130    1
    40   129   130    1
    41    65    64    1
    42    65    66    1
    43    77    76    1
    44    64    61    1
    45    60    61    1
    46    60    48   am
    47   173   175   ar
    48   173   174   ar
    49   151   150   ar
    50   151   153   ar
    51   130   133    1
    52   170   178   am
    53   170   171    2
    54   175   177   ar
    55    76    70   am
    56   178   179    1
    57   150   152   ar
    58    48    47    1
    59    48    49    2
    60    47    50    1
    61    52    54   ar
    62    52    51   ar
    63    54    55   ar
    64   174   176   ar
    65   110   108    1
    66   153   155   ar
    67   177   176   ar
    68    51    50    1
    69    51    53   ar
    70    68    69    1
    71    55    57   ar
    72    55    53   ar
    73    70    71    2
    74    70    69    1
    75   180   179    1
    76   180   181    2
    77   179   182    1
    78   133   134    1
    79   109   108    1
    80   182   183    1
    81   152   154   ar
    82    86    87    2
    83    86    85    1
    84   108   107    1
    85    57    59   ar
    86   185   183    1
    87    53    56   ar
    88   125   124    2
    89    91    89    1
    90   134   135    1
    91    69    72    1
    92    84    85    1
    93   155   154   ar
    94   183   184    1
    95    89    88    1
    96    89    90    1
    97    88    85    1
    98    59    58   ar
    99    92    93    1
   100   124   123    1
   101    56    58   ar
   102    72    73    1
   103   107   104    1
   104   103   104    1
   105   104   105    1
   106    73    74    1
   107    73    75    1
   108    93    94    1
   109    93    96    1
   110    94    95    2
   111   127   126    1
   112   135   136    1
   113   123   126    1
   114   123   122    1
   115   126   128    1
   116   121   119   ar
   117   121   120   ar
   118   105   106    2
   119   119   117   ar
   120    96    97    1
   121   120   118   ar
   122   197   196    2
   123    97    98    1
   124     8     7    1
   125   101   100    1
   126   117   116   ar
   127   118   116   ar
   128   100   102    1
   129   100    99    2
   130   201   199    1
   131   196   195    1
   132    98    99    1
   133     7     6    1
   134   192   191    1
   135    15    14    1
   136   116   115    1
   137   111   112    1
   138   195   198    1
   139   195   194    1
   140    44    43   ar
   141   112   115    1
   142   112   113    1
   143    36    33    1
   144     6     5    1
   145   199   198    1
   146   199   200    1
   147   191   193    1
   148   191   190    1
   149    45    43   ar
   150    14    13    1
   151    14    16    1
   152    43    42    1
   153    40    39    2
   154    13    10    1
   155    41    42    1
   156    41    38    1
   157    39    38    1
   158    35    34    2
   159   114   113    2
   160    33    34    1
   161    33    32    1
   162   190   187    1
   163     5     2    1
   164    12    11    2
   165    38    37    1
   166    10    11    1
   167    10     9    1
   168    11    17   am
   169    31    29    1
   170     2     1    1
   171     2     3    1
   172    32    26   am
   173    17    18    1
   174    21    18    1
   175    21    23    1
   176    21    22    1
   177    18    19    1
   178     4     3    2
   179   187   186    1
   180   187   188    1
   181    29    28    1
   182    29    30    1
   183    26    27    2
   184    26    25    1
   185   188   189    2
   186    20    19    2
   187    28    25    1
   188    25    24    1
