@<TRIPOS>MOLECULE
tmp/2qhdA00.pdb
 127 122 0 0 0
SMALL
GASTEIGER

@<TRIPOS>ATOM
      1  N        -28.0030   33.6180  -14.5920 N.3     2  VAL2       -0.1245
      2  CA       -28.7390   32.6080  -15.3290 C.3     2  VAL2        0.1561
      3  C        -30.2130   32.8040  -14.9600 C.2     2  VAL2        0.2260
      4  O        -31.1160   32.4310  -15.7060 O.2     2  VAL2       -0.2867
      5  CB       -28.2860   31.1830  -14.9240 C.3     2  VAL2        0.0252
      6  CG1      -28.4750   30.9710  -13.4260 C.3     2  VAL2        0.0019
      7  CG2      -29.0600   30.1510  -15.7040 C.3     2  VAL2        0.0019
      8  N        -31.5730   35.5520  -17.2850 N.3     5  LEU5       -0.1231
      9  CA       -31.6450   34.9630  -18.6190 C.3     5  LEU5        0.1693
     10  C        -32.8750   34.0730  -18.7720 C.2     5  LEU5        0.2592
     11  O        -33.5620   34.1210  -19.7960 O.2     5  LEU5       -0.2718
     12  CB       -30.3920   34.1380  -18.9080 C.3     5  LEU5        0.0284
     13  CG       -30.4290   33.3050  -20.1950 C.3     5  LEU5        0.0019
     14  CD1      -30.6180   34.2150  -21.4100 C.3     5  LEU5        0.0001
     15  CD2      -29.1350   32.5110  -20.3150 C.3     5  LEU5        0.0001
     16  N        -33.1290   33.2470  -17.7600 N.am    6  GLY6       -0.1957
     17  CA       -34.2810   32.3680  -17.8000 C.3     6  GLY6        0.1869
     18  C        -35.5820   33.1500  -17.8520 C.2     6  GLY6        0.2309
     19  O        -36.5070   32.7630  -18.5690 O.2     6  GLY6       -0.2863
     20  N        -36.1790   34.4960  -21.3130 N.3     9  ILE9       -0.1245
     21  CA       -36.5690   33.4070  -22.2040 C.3     9  ILE9        0.1561
     22  C        -38.0620   33.1680  -22.0980 C.2     9  ILE9        0.2260
     23  O        -38.7590   33.0820  -23.1090 O.2     9  ILE9       -0.2867
     24  CB       -35.8250   32.0890  -21.8520 C.3     9  ILE9        0.0252
     25  CG1      -34.3140   32.2720  -22.0340 C.3     9  ILE9        0.0019
     26  CG2      -36.3420   30.9450  -22.7240 C.3     9  ILE9        0.0019
     27  CD1      -33.9090   32.5820  -23.4170 C.3     9  ILE9        0.0001
     28  N        -36.7300   27.9380  -19.8080 N.3    17  PRO17      -0.2116
     29  CA       -35.4760   27.4150  -20.3570 C.3    17  PRO17       0.1372
     30  C        -35.3680   25.8890  -20.3050 C.2    17  PRO17       0.2244
     31  O        -34.9180   25.2650  -21.2600 O.2    17  PRO17      -0.2868
     32  CB       -34.4060   28.1240  -19.5220 C.3    17  PRO17       0.0268
     33  CG       -35.1250   28.5130  -18.2570 C.3    17  PRO17       0.0207
     34  CD       -36.4670   28.9450  -18.7650 C.3    17  PRO17       0.0892
     35  N        -34.8150   24.7240  -23.9390 N.3    21  TYR21      -0.1227
     36  CA       -33.5540   25.2570  -24.4450 C.3    21  TYR21       0.1736
     37  C        -32.3110   24.8660  -23.6630 C.2    21  TYR21       0.2596
     38  O        -31.1980   25.1960  -24.0720 O.2    21  TYR21      -0.2718
     39  CB       -33.6280   26.7930  -24.5220 C.3    21  TYR21       0.0548
     40  CG       -34.6970   27.3160  -25.4540 C.ar   21  TYR21      -0.0200
     41  CD1      -35.8970   27.8320  -24.9580 C.ar   21  TYR21      -0.0009
     42  CD2      -34.5320   27.2500  -26.8350 C.ar   21  TYR21      -0.0009
     43  CE1      -36.9120   28.2660  -25.8240 C.ar   21  TYR21       0.0417
     44  CE2      -35.5350   27.6780  -27.7070 C.ar   21  TYR21       0.0417
     45  CZ       -36.7210   28.1800  -27.1960 C.ar   21  TYR21       0.1957
     46  OH       -37.7120   28.5690  -28.0660 O.3    21  TYR21      -0.2866
     47  N        -32.4740   24.1540  -22.5550 N.am   22  THR22      -0.1953
     48  CA       -31.3110   23.7850  -21.7500 C.3    22  THR22       0.1897
     49  C        -30.3010   22.8090  -22.3780 C.2    22  THR22       0.2313
     50  O        -29.1990   22.6460  -21.8560 O.2    22  THR22      -0.2863
     51  CB       -31.7540   23.2480  -20.3650 C.3    22  THR22       0.1794
     52  OG1      -32.8310   22.3220  -20.5300 O.3    22  THR22      -0.2208
     53  CG2      -32.2140   24.3920  -19.4760 C.3    22  THR22       0.0378
     54  N        -25.4450   23.8210  -29.4820 N.3    27  PHE27      -0.1227
     55  CA       -24.9880   24.9300  -28.6530 C.3    27  PHE27       0.1736
     56  C        -25.8470   25.4270  -27.4930 C.2    27  PHE27       0.2596
     57  O        -25.3220   26.0570  -26.5720 O.2    27  PHE27      -0.2718
     58  CB       -24.6290   26.1160  -29.5500 C.3    27  PHE27       0.0547
     59  CG       -23.5380   25.8130  -30.5270 C.ar   27  PHE27      -0.0202
     60  CD1      -23.8370   25.3290  -31.7980 C.ar   27  PHE27      -0.0042
     61  CD2      -22.2030   25.9450  -30.1540 C.ar   27  PHE27      -0.0042
     62  CE1      -22.8210   24.9790  -32.6820 C.ar   27  PHE27      -0.0003
     63  CE2      -21.1770   25.5970  -31.0310 C.ar   27  PHE27      -0.0003
     64  CZ       -21.4850   25.1130  -32.2930 C.ar   27  PHE27      -0.0000
     65  N        -27.1510   25.1740  -27.5190 N.am   28  CYS28      -0.1956
     66  CA       -28.0020   25.6450  -26.4240 C.3    28  CYS28       0.1843
     67  C        -27.7460   24.8720  -25.1330 C.2    28  CYS28       0.2626
     68  O        -27.8790   23.6480  -25.0930 O.2    28  CYS28      -0.2714
     69  CB       -29.4760   25.5370  -26.8100 C.3    28  CYS28       0.0997
     70  SG       -29.9140   26.4830  -28.3020 S.3    28  CYS28      -0.0797
     71  N        -27.3710   25.5950  -24.0800 N.am   29  GLY29      -0.1940
     72  CA       -27.0860   24.9610  -22.8020 C.3    29  GLY29       0.2014
     73  C        -25.6440   24.4810  -22.7510 C.2    29  GLY29       0.2639
     74  O        -25.2170   23.8540  -21.7790 O.2    29  GLY29      -0.2714
     75  N        -24.8940   24.7700  -23.8110 N.am   30  GLY30      -0.1954
     76  CA       -23.5030   24.3650  -23.8700 C.3    30  GLY30       0.1869
     77  C        -23.1420   23.6570  -25.1620 C.2    30  GLY30       0.2309
     78  O        -24.0100   23.1650  -25.8900 O.2    30  GLY30      -0.2863
     79  N        -28.1040   30.3890  -29.9220 N.3    44  CYS44      -0.1235
     80  CA       -27.3030   29.9780  -28.7680 C.3    44  CYS44       0.1677
     81  C        -25.7920   30.1180  -28.9840 C.2    44  CYS44       0.2270
     82  O        -25.0550   30.4580  -28.0580 O.2    44  CYS44      -0.2867
     83  CB       -27.6580   28.5360  -28.3790 C.3    44  CYS44       0.0956
     84  SG       -29.3920   28.3880  -27.8300 S.3    44  CYS44      -0.0801
     85  N        -25.0100   33.6100  -28.6550 N.3    47  HIS47      -0.1226
     86  CA       -25.0750   33.9990  -27.2500 C.3    47  HIS47       0.1752
     87  C        -23.7700   33.6330  -26.5610 C.2    47  HIS47       0.2596
     88  O        -23.2130   34.4150  -25.7930 O.2    47  HIS47      -0.2718
     89  CB       -26.2490   33.3100  -26.5460 C.3    47  HIS47       0.0759
     90  CG       -26.4250   33.7310  -25.1210 C.ar   47  HIS47       0.0818
     91  ND1      -26.2360   32.8700  -24.0630 N.ar   47  HIS47      -0.2268
     92  CD2      -26.7890   34.9190  -24.5790 C.ar   47  HIS47       0.1154
     93  CE1      -26.4820   33.5050  -22.9310 C.ar   47  HIS47       0.1986
     94  NE2      -26.8190   34.7490  -23.2160 N.ar   47  HIS47      -0.2212
     95  N        -23.2790   32.4350  -26.8500 N.am   48  SER48      -0.1952
     96  CA       -22.0270   31.9690  -26.2780 C.3    48  SER48       0.1924
     97  C        -20.9090   32.9250  -26.6970 C.2    48  SER48       0.2314
     98  O        -20.0630   33.3130  -25.8860 O.2    48  SER48      -0.2863
     99  CB       -21.7300   30.5580  -26.7840 C.3    48  SER48       0.2116
    100  OG       -20.5330   30.0740  -26.2190 O.3    48  SER48      -0.2180
    101  N        -21.0270   36.1760  -24.7580 N.3    51  TYR51      -0.1241
    102  CA       -20.4560   36.0730  -23.4180 C.3    51  TYR51       0.1605
    103  C        -18.9340   36.1290  -23.4830 C.2    51  TYR51       0.2264
    104  O        -18.2860   36.5690  -22.5370 O.2    51  TYR51      -0.2867
    105  CB       -20.8860   34.7730  -22.7270 C.3    51  TYR51       0.0534
    106  CG       -22.2230   34.8210  -21.9890 C.ar   51  TYR51      -0.0201
    107  CD1      -23.0880   35.9100  -22.1070 C.ar   51  TYR51      -0.0009
    108  CD2      -22.6170   33.7570  -21.1790 C.ar   51  TYR51      -0.0009
    109  CE1      -24.3190   35.9290  -21.4300 C.ar   51  TYR51       0.0417
    110  CE2      -23.8320   33.7640  -20.5060 C.ar   51  TYR51       0.0417
    111  CZ       -24.6790   34.8440  -20.6300 C.ar   51  TYR51       0.1957
    112  OH       -25.8820   34.8260  -19.9570 O.3    51  TYR51      -0.2866
    113  N        -30.2920   37.0200  -27.1080 N.3    92  VAL92      -0.1245
    114  CA       -30.6280   35.6180  -27.3380 C.3    92  VAL92       0.1561
    115  C        -32.1220   35.3340  -27.1170 C.2    92  VAL92       0.2260
    116  O        -32.7100   34.5420  -27.8430 O.2    92  VAL92      -0.2867
    117  CB       -29.7900   34.6730  -26.4550 C.3    92  VAL92       0.0252
    118  CG1      -30.2630   34.7380  -25.0040 C.3    92  VAL92       0.0019
    119  CG2      -29.8780   33.2560  -26.9990 C.3    92  VAL92       0.0019
    120  N        -34.5080   33.7440  -29.9560 N.3    96  LEU96      -0.1245
    121  CA       -35.2470   32.5010  -29.7770 C.3    96  LEU96       0.1561
    122  C        -36.7110   32.7170  -30.1450 C.2    96  LEU96       0.2260
    123  O        -37.3440   31.8330  -30.7200 O.2    96  LEU96      -0.2867
    124  CB       -35.1170   31.9850  -28.3380 C.3    96  LEU96       0.0270
    125  CG       -33.6950   31.5810  -27.9220 C.3    96  LEU96       0.0019
    126  CD1      -33.6750   31.1330  -26.4640 C.3    96  LEU96       0.0001
    127  CD2      -33.2050   30.4600  -28.8150 C.3    96  LEU96       0.0001
@<TRIPOS>BOND
     1    62    64   ar
     2    62    60   ar
     3    64    63   ar
     4    60    59   ar
     5    63    61   ar
     6   123   122    2
     7    59    61   ar
     8    59    58    1
     9   122   121    1
    10   120   121    1
    11    79    80    1
    12   121   124    1
    13    58    55    1
    14    54    55    1
    15    81    80    1
    16    81    82    2
    17   127   125    1
    18    80    83    1
    19    85    86    1
    20    55    56    1
    21    83    84    1
    22   124   125    1
    23    70    84    1
    24    70    69    1
    25    46    45    1
    26   125   126    1
    27   116   115    2
    28    44    45   ar
    29    44    42   ar
    30    65    56   am
    31    65    66    1
    32    56    57    2
    33   114   115    1
    34   114   113    1
    35   114   117    1
    36    86    87    1
    37    86    89    1
    38    45    43   ar
    39   119   117    1
    40    95    87   am
    41    95    96    1
    42    42    40   ar
    43    69    66    1
    44    99    96    1
    45    99   100    1
    46    97    96    1
    47    97    98    2
    48    87    88    2
    49    89    90    1
    50   117   118    1
    51    66    67    1
    52    78    77    2
    53    43    41   ar
    54    40    41   ar
    55    40    39    1
    56    77    76    1
    57    67    68    2
    58    67    71   am
    59    90    92   ar
    60    90    91   ar
    61   101   102    1
    62    92    94   ar
    63    39    36    1
    64    36    35    1
    65    36    37    1
    66    71    72    1
    67    38    37    2
    68    91    93   ar
    69    76    75    1
    70    75    73   am
    71    37    47   am
    72   103   102    1
    73   103   104    2
    74   102   105    1
    75    27    25    1
    76    94    93   ar
    77    23    22    2
    78    72    73    1
    79    73    74    2
    80   105   106    1
    81    26    24    1
    82    47    48    1
    83    49    50    2
    84    49    48    1
    85    21    22    1
    86    21    24    1
    87    21    20    1
    88   107   106   ar
    89   107   109   ar
    90    25    24    1
    91   106   108   ar
    92    48    51    1
    93   109   111   ar
    94    14    13    1
    95    31    30    2
    96   108   110   ar
    97   111   110   ar
    98   111   112    1
    99    52    51    1
   100    51    53    1
   101    29    30    1
   102    29    28    1
   103    29    32    1
   104    15    13    1
   105    13    12    1
   106    28    34    1
   107    11    10    2
   108    32    33    1
   109    12     9    1
   110    10     9    1
   111    10    16   am
   112    34    33    1
   113     9     8    1
   114    19    18    2
   115    18    17    1
   116    17    16    1
   117     4     3    2
   118     7     5    1
   119     2     3    1
   120     2     5    1
   121     2     1    1
   122     5     6    1
