@<TRIPOS>MOLECULE
tmp/2qhfA00.pdb
 119 106 0 0 0
SMALL
GASTEIGER

@<TRIPOS>ATOM
      1  N         60.1770   22.7240   20.1400 N.3    40  ARG40      -0.1245
      2  CA        61.6060   22.5120   20.5090 C.3    40  ARG40       0.1563
      3  C         62.2110   23.5880   21.4010 C.2    40  ARG40       0.2260
      4  O         63.2990   23.4080   21.9270 O.2    40  ARG40      -0.2867
      5  CB        62.4760   22.4180   19.2530 C.3    40  ARG40       0.0307
      6  CG        62.0890   21.3140   18.3160 C.3    40  ARG40       0.0489
      7  CD        63.0620   21.2950   17.0950 C.3    40  ARG40       0.2205
      8  NE        64.4190   20.9100   17.4440 N.pl3  40  ARG40      -0.0865
      9  CZ        65.4940   21.7180   17.5120 C.cat  40  ARG40       0.5346
     10  NH1       65.4200   23.0140   17.2240 N.pl3  40  ARG40       0.1354
     11  NH2       66.6640   21.2230   17.8620 N.pl3  40  ARG40       0.1354
     12  N         66.0920   26.1660   28.3520 N.3    46  ARG46      -0.1245
     13  CA        66.2470   25.9400   26.9090 C.3    46  ARG46       0.1563
     14  C         66.8360   27.1600   26.1880 C.2    46  ARG46       0.2260
     15  O         67.5080   27.0230   25.1520 O.2    46  ARG46      -0.2867
     16  CB        64.8940   25.5680   26.2900 C.3    46  ARG46       0.0307
     17  CG        64.9600   25.1480   24.8250 C.3    46  ARG46       0.0489
     18  CD        65.8680   23.9560   24.5870 C.3    46  ARG46       0.2205
     19  NE        65.7450   23.5340   23.2000 N.pl3  46  ARG46      -0.0865
     20  CZ        66.5170   22.6330   22.6030 C.cat  46  ARG46       0.5346
     21  NH1       67.5100   22.0400   23.2490 N.pl3  46  ARG46       0.1354
     22  NH2       66.2940   22.3570   21.3220 N.pl3  46  ARG46       0.1354
     23  N         70.3740   27.4030   24.9980 N.3    49  ARG49      -0.1245
     24  CA        70.7300   26.6600   23.7840 C.3    49  ARG49       0.1563
     25  C         70.1830   27.3090   22.5130 C.2    49  ARG49       0.2260
     26  O         70.8640   27.3310   21.4810 O.2    49  ARG49      -0.2867
     27  CB        70.1890   25.2290   23.8810 C.3    49  ARG49       0.0307
     28  CG        70.3830   24.4050   22.6260 C.3    49  ARG49       0.0489
     29  CD        71.8450   24.2790   22.2340 C.3    49  ARG49       0.2205
     30  NE        71.9720   23.3670   21.0950 N.pl3  49  ARG49      -0.0865
     31  CZ        73.0430   23.2340   20.3170 C.cat  49  ARG49       0.5346
     32  NH1       74.1190   23.9840   20.5180 N.pl3  49  ARG49       0.1354
     33  NH2       73.0250   22.3600   19.3060 N.pl3  49  ARG49       0.1354
     34  N         72.7110   18.3930   17.3530 N.3   138  ALA138     -0.1245
     35  CA        71.2620   18.2170   17.4780 C.3   138  ALA138      0.1562
     36  C         70.4230   19.3330   16.8660 C.2   138  ALA138      0.2260
     37  O         69.1940   19.2430   16.7830 O.2   138  ALA138     -0.2867
     38  CB        70.8680   17.9770   18.9290 C.3   138  ALA138      0.0290
     39  N         67.9810   18.0550   14.3820 N.3   141  THR141     -0.1218
     40  CA        66.6430   17.5970   14.7880 C.3   141  THR141      0.1862
     41  C         65.5090   18.5630   14.4560 C.2   141  THR141      0.2287
     42  O         64.3400   18.1850   14.3870 O.2   141  THR141     -0.2866
     43  CB        66.5620   17.1540   16.2730 C.3   141  THR141      0.1770
     44  OG1       66.6370   18.2960   17.1430 O.3   141  THR141     -0.2211
     45  CG2       67.6520   16.1300   16.6170 C.3   141  THR141      0.0375
     46  N         68.3330    9.0840   17.1340 N.3   255  ILE255     -0.1231
     47  CA        68.3310   10.4650   17.6240 C.3   255  ILE255      0.1692
     48  C         69.5900   10.6890   18.4400 C.2   255  ILE255      0.2591
     49  O         70.0260    9.8630   19.2400 O.2   255  ILE255     -0.2718
     50  CB        67.0850   10.7530   18.4580 C.3   255  ILE255      0.0266
     51  CG1       65.8030   10.6250   17.6200 C.3   255  ILE255      0.0019
     52  CG2       67.1460   12.1500   19.0950 C.3   255  ILE255      0.0020
     53  CD1       64.5670   10.4570   18.4600 C.3   255  ILE255      0.0001
     54  N         70.2020   11.8530   18.2440 N.am  256  GLN256     -0.1979
     55  CA        71.3630   12.2520   19.0150 C.3   256  GLN256      0.1601
     56  C         71.1500   12.0400   20.5290 C.2   256  GLN256      0.2287
     57  O         70.0840   12.3370   21.0430 O.2   256  GLN256     -0.2864
     58  CB        71.6300   13.7430   18.7730 C.3   256  GLN256      0.0394
     59  CG        72.1630   14.1100   17.3370 C.3   256  GLN256      0.0908
     60  CD        71.0990   14.2900   16.2690 C.2   256  GLN256      0.2608
     61  OE1       70.0080   13.7120   16.3190 O.2   256  GLN256     -0.2717
     62  NE2       71.4140   15.1230   15.2740 N.am  256  GLN256     -0.0878
     63  N         70.6550    9.4850   22.3530 N.3   258  ILE258     -0.1245
     64  CA        69.8250    8.3770   22.8540 C.3   258  ILE258      0.1561
     65  C         70.6780    7.1090   22.9780 C.2   258  ILE258      0.2260
     66  O         71.4250    6.7460   22.0580 O.2   258  ILE258     -0.2867
     67  CB        68.6020    8.1490   21.9510 C.3   258  ILE258      0.0252
     68  CG1       67.7260    9.4020   21.8470 C.3   258  ILE258      0.0019
     69  CG2       67.7640    6.9600   22.4660 C.3   258  ILE258      0.0019
     70  CD1       67.3500   10.0290   23.1740 C.3   258  ILE258      0.0001
     71  N         68.1260    9.2520   27.3220 N.3   314  MET314     -0.1245
     72  CA        69.0260   10.2750   26.7800 C.3   314  MET314      0.1570
     73  C         70.1780   10.5140   27.7370 C.2   314  MET314      0.2261
     74  O         69.9450   10.7730   28.9160 O.2   314  MET314     -0.2867
     75  CB        68.2690   11.5690   26.5820 C.3   314  MET314      0.0387
     76  CG        69.1020   12.6200   25.8800 C.3   314  MET314      0.0595
     77  SD        68.1720   14.1580   25.8070 S.3   314  MET314     -0.1393
     78  CE        69.3430   15.2090   24.9990 C.3   314  MET314      0.0692
     79  N         74.0470   15.7170   27.2010 N.3   317  ILE317     -0.1245
     80  CA        74.3310   15.8250   25.7540 C.3   317  ILE317      0.1561
     81  C         75.3170   17.0360   25.7730 C.2   317  ILE317      0.2260
     82  O         76.1680   17.1800   24.8870 O.2   317  ILE317     -0.2867
     83  CB        73.1530   16.1010   24.7710 C.3   317  ILE317      0.0252
     84  CG1       73.7090   16.1740   23.3360 C.3   317  ILE317      0.0019
     85  CG2       72.4100   17.3820   25.0830 C.3   317  ILE317      0.0019
     86  CD1       72.6680   16.2010   22.2360 C.3   317  ILE317      0.0001
     87  N         77.8030   23.5450   23.8230 N.3   341  ARG341     -0.1245
     88  CA        76.5140   24.0060   24.3050 C.3   341  ARG341      0.1563
     89  C         76.5700   24.1190   25.8220 C.2   341  ARG341      0.2260
     90  O         77.3800   23.4550   26.4730 O.2   341  ARG341     -0.2867
     91  CB        75.3710   23.0910   23.8420 C.3   341  ARG341      0.0307
     92  CG        75.6130   21.6180   24.0500 C.3   341  ARG341      0.0489
     93  CD        74.6240   20.7580   23.2620 C.3   341  ARG341      0.2205
     94  NE        73.2640   20.9460   23.7390 N.pl3 341  ARG341     -0.0865
     95  CZ        72.1670   20.5170   23.1310 C.cat 341  ARG341      0.5346
     96  NH1       72.2420   19.8650   21.9710 N.pl3 341  ARG341      0.1354
     97  NH2       70.9870   20.7640   23.6760 N.pl3 341  ARG341      0.1354
     98  N         68.4580   18.8380   28.0680 N.3   346  ALA346     -0.1245
     99  CA        67.6520   18.9750   26.8640 C.3   346  ALA346      0.1562
    100  C         66.5640   17.9140   26.7400 C.2   346  ALA346      0.2260
    101  O         65.9730   17.7640   25.6840 O.2   346  ALA346     -0.2867
    102  CB        68.5540   18.8900   25.6520 C.3   346  ALA346      0.0290
    103  N         62.8420   18.9310   25.3350 N.3   349  ALA349     -0.1231
    104  CA        62.8840   19.1710   23.8870 C.3   349  ALA349      0.1694
    105  C         63.1580   17.8800   23.1070 C.2   349  ALA349      0.2591
    106  O         62.6090   17.6680   22.0200 O.2   349  ALA349     -0.2718
    107  CB        63.9430   20.1990   23.5660 C.3   349  ALA349      0.0304
    108  N         64.0170   17.0310   23.6500 N.am  350  ALA350     -0.1980
    109  CA        64.3000   15.7200   23.0350 C.3   350  ALA350      0.1597
    110  C         63.0270   14.8890   22.8980 C.2   350  ALA350      0.2287
    111  O         62.8490   14.1650   21.9100 O.2   350  ALA350     -0.2864
    112  CB        65.3440   14.9840   23.8190 C.3   350  ALA350      0.0319
    113  N         61.3260   15.4760   19.7160 N.3   353  VAL353     -0.1245
    114  CA        61.9860   14.8430   18.5900 C.3   353  VAL353      0.1561
    115  C         61.5920   13.3430   18.5730 C.2   353  VAL353      0.2260
    116  O         61.3510   12.7710   17.5140 O.2   353  VAL353     -0.2867
    117  CB        63.5000   15.0280   18.6570 C.3   353  VAL353      0.0252
    118  CG1       64.2100   14.3510   17.4740 C.3   353  VAL353      0.0019
    119  CG2       63.8350   16.5360   18.6350 C.3   353  VAL353      0.0019
@<TRIPOS>BOND
     1    39    40    1
     2    42    41    2
     3    41    40    1
     4    40    43    1
     5    62    60   am
     6    60    61    2
     7    60    59    1
     8    43    45    1
     9    43    44    1
    10    37    36    2
    11    36    35    1
    12     7     8    1
    13     7     6    1
    14    46    47    1
    15    10     9    1
    16    59    58    1
    17    34    35    1
    18     8     9    2
    19   118   117    1
    20    35    38    1
    21     9    11    1
    22   116   115    2
    23    51    50    1
    24    51    53    1
    25    47    48    1
    26    47    50    1
    27    54    48   am
    28    54    55    1
    29     6     5    1
    30    48    49    2
    31    50    52    1
    32   115   114    1
    33   114   117    1
    34   114   113    1
    35   119   117    1
    36    58    55    1
    37    55    56    1
    38     5     2    1
    39    33    31    1
    40     1     2    1
    41    31    32    1
    42    31    30    2
    43     2     3    1
    44    56    57    2
    45    30    29    1
    46    22    20    1
    47     3     4    2
    48    26    25    2
    49    68    67    1
    50    68    70    1
    51   111   110    2
    52    67    69    1
    53    67    64    1
    54    96    95    1
    55   106   105    2
    56    66    65    2
    57    29    28    1
    58    86    84    1
    59    63    64    1
    60    25    24    1
    61    20    19    2
    62    20    21    1
    63    28    27    1
    64    64    65    1
    65   110   109    1
    66   109   108    1
    67   109   112    1
    68   105   108   am
    69   105   104    1
    70    95    97    1
    71    95    94    2
    72    19    18    1
    73    93    94    1
    74    93    92    1
    75    84    83    1
    76   107   104    1
    77    24    27    1
    78    24    23    1
    79    87    88    1
    80    91    92    1
    81    91    88    1
    82   104   103    1
    83    88    89    1
    84    18    17    1
    85    83    85    1
    86    83    80    1
    87    17    16    1
    88    82    81    2
    89    78    77    1
    90    15    14    2
    91   102    99    1
    92   101   100    2
    93    80    81    1
    94    80    79    1
    95    77    76    1
    96    89    90    2
    97    76    75    1
    98    14    13    1
    99    16    13    1
   100    75    72    1
   101   100    99    1
   102    72    71    1
   103    72    73    1
   104    99    98    1
   105    13    12    1
   106    73    74    2
