@<TRIPOS>MOLECULE
tmp/2qhmA00.pdb
 136 126 0 0 0
SMALL
GASTEIGER

@<TRIPOS>ATOM
      1  N         17.8580   -6.6960    6.1310 N.3    14  LEU14      -0.1231
      2  CA        18.2530   -5.7040    7.1090 C.3    14  LEU14       0.1693
      3  C         18.4420   -6.3120    8.5000 C.2    14  LEU14       0.2592
      4  O         19.3640   -5.9390    9.2300 O.2    14  LEU14      -0.2718
      5  CB        17.2320   -4.5600    7.1360 C.3    14  LEU14       0.0284
      6  CG        17.3380   -3.6430    5.9160 C.3    14  LEU14       0.0019
      7  CD1       16.4360   -2.4330    6.0480 C.3    14  LEU14       0.0001
      8  CD2       18.7830   -3.2270    5.7290 C.3    14  LEU14       0.0001
      9  N         17.5780   -7.2590    8.8520 N.am   15  GLY15      -0.1957
     10  CA        17.6230   -7.9210   10.1410 C.3    15  GLY15       0.1869
     11  C         16.4780   -8.8990   10.3030 C.2    15  GLY15       0.2309
     12  O         15.8820   -9.3260    9.3130 O.2    15  GLY15      -0.2863
     13  N         13.3280   -8.2320    8.1080 N.3    18  VAL18      -0.1245
     14  CA        13.2540   -6.8610    7.6290 C.3    18  VAL18       0.1561
     15  C         14.0820   -6.7830    6.3480 C.2    18  VAL18       0.2260
     16  O         15.2270   -7.2240    6.3280 O.2    18  VAL18      -0.2867
     17  CB        13.7600   -5.8440    8.6870 C.3    18  VAL18       0.0252
     18  CG1       13.6280   -4.4270    8.1450 C.3    18  VAL18       0.0019
     19  CG2       12.9760   -5.9960    9.9830 C.3    18  VAL18       0.0019
     20  N         12.4490    0.4320    4.5250 N.3    31  ALA31      -0.1245
     21  CA        12.6170   -0.8420    5.2140 C.3    31  ALA31       0.1562
     22  C         11.2190   -1.4690    5.2500 C.2    31  ALA31       0.2260
     23  O         10.2280   -0.8050    5.5350 O.2    31  ALA31      -0.2867
     24  CB        13.1530   -0.6250    6.6470 C.3    31  ALA31       0.0290
     25  N          9.1150   -4.5190    6.8790 N.3    33  LYS33      -0.1245
     26  CA         9.1230   -5.6250    7.8240 C.3    33  LYS33       0.1561
     27  C          8.1080   -6.6450    7.3110 C.2    33  LYS33       0.2260
     28  O          6.9570   -6.2980    7.0190 O.2    33  LYS33      -0.2867
     29  CB         8.7570   -5.1670    9.2420 C.3    33  LYS33       0.0271
     30  CG         9.0130   -6.2250   10.3110 C.3    33  LYS33       0.0035
     31  CD         8.5650   -5.7400   11.6850 C.3    33  LYS33       0.0206
     32  CE         8.3510   -6.8990   12.6600 C.3    33  LYS33       0.1093
     33  NZ         8.0140   -6.4080   14.0260 N.3    33  LYS33      -0.1314
     34  N         11.2880    5.7970   14.3480 N.3    56  VAL56      -0.1245
     35  CA        11.2100    5.2200   13.0100 C.3    56  VAL56       0.1561
     36  C          9.8110    5.4590   12.3970 C.2    56  VAL56       0.2260
     37  O          8.8060    5.0250   12.9610 O.2    56  VAL56      -0.2867
     38  CB        11.5880    3.7230   13.0280 C.3    56  VAL56       0.0252
     39  CG1       11.2870    3.0810   11.6560 C.3    56  VAL56       0.0019
     40  CG2       13.0910    3.5500   13.3940 C.3    56  VAL56       0.0019
     41  N          8.5530    0.8820    6.5640 N.3    72  LEU72      -0.1231
     42  CA         9.1510    1.7720    7.5480 C.3    72  LEU72       0.1693
     43  C         10.3250    2.5810    7.0560 C.2    72  LEU72       0.2592
     44  O         11.0160    2.2140    6.0970 O.2    72  LEU72      -0.2718
     45  CB         9.6000    0.9370    8.7590 C.3    72  LEU72       0.0284
     46  CG         8.5450   -0.0560    9.2820 C.3    72  LEU72       0.0019
     47  CD1        9.1700   -1.2280   10.0530 C.3    72  LEU72       0.0001
     48  CD2        7.4970    0.6410   10.1010 C.3    72  LEU72       0.0001
     49  N         10.5850    3.6630    7.7770 N.am   73  GLU73      -0.1966
     50  CA        11.7220    4.5050    7.4850 C.3    73  GLU73       0.1733
     51  C         12.9960    3.6430    7.4720 C.2    73  GLU73       0.2616
     52  O         13.2260    2.8240    8.3870 O.2    73  GLU73      -0.2715
     53  CB        11.8100    5.5940    8.5650 C.3    73  GLU73       0.0429
     54  CG        12.8610    6.6500    8.3430 C.3    73  GLU73       0.1163
     55  CD        12.9190    7.6760    9.4600 C.2    73  GLU73       0.3649
     56  OE1       13.8420    8.5150    9.4350 O.co2  73  GLU73      -0.2457
     57  OE2       12.0670    7.6420   10.3720 O.co2  73  GLU73      -0.2457
     58  N         13.7940    3.7860    6.4120 N.am   74  TYR74      -0.1960
     59  CA        15.0720    3.0830    6.2980 C.3    74  TYR74       0.1771
     60  C         16.1560    3.8920    7.0360 C.2    74  TYR74       0.2619
     61  O         16.3190    5.0970    6.7970 O.2    74  TYR74      -0.2715
     62  CB        15.4920    2.9580    4.8140 C.3    74  TYR74       0.0574
     63  CG        16.9060    2.3990    4.6380 C.ar   74  TYR74      -0.0198
     64  CD1       17.2860    1.2120    5.2540 C.ar   74  TYR74      -0.0009
     65  CD2       17.8470    3.0550    3.8430 C.ar   74  TYR74      -0.0009
     66  CE1       18.5650    0.6820    5.0720 C.ar   74  TYR74       0.0417
     67  CE2       19.1240    2.5230    3.6440 C.ar   74  TYR74       0.0417
     68  CZ        19.4830    1.3500    4.2830 C.ar   74  TYR74       0.1957
     69  OH        20.7670    0.8470    4.1430 O.3    74  TYR74      -0.2866
     70  N         16.9220    3.2320    7.9020 N.am   75  CYS75      -0.1968
     71  CA        17.9760    3.9130    8.6550 C.3    75  CYS75       0.1712
     72  C         19.2950    3.3120    8.2080 C.2    75  CYS75       0.2296
     73  O         19.6610    2.2190    8.6180 O.2    75  CYS75      -0.2864
     74  CB        17.7300    3.7400   10.1820 C.3    75  CYS75       0.0983
     75  SG        16.1000    4.4170   10.7290 S.3    75  CYS75      -0.0798
     76  N         22.5880    1.9870   10.5110 N.3    78  GLY78      -0.1210
     77  CA        22.5930    0.7730   11.2990 C.3    78  GLY78       0.1956
     78  C         22.1200    0.9450   12.7310 C.2    78  GLY78       0.2611
     79  O         21.4450    1.8930   13.0630 O.2    78  GLY78      -0.2717
     80  N         22.4980    0.0000   13.5740 N.am   79  GLU79      -0.1979
     81  CA        22.1350   -0.0260   14.9840 C.3    79  GLU79       0.1602
     82  C         23.1650    0.6920   15.8240 C.2    79  GLU79       0.2287
     83  O         24.3610    0.6030   15.5710 O.2    79  GLU79      -0.2864
     84  CB        22.0420   -1.4690   15.4660 C.3    79  GLU79       0.0415
     85  CG        21.1200   -2.3050   14.5850 C.3    79  GLU79       0.1163
     86  CD        20.8640   -3.6880   15.1260 C.2    79  GLU79       0.3649
     87  OE1       21.6050   -4.1280   16.0290 O.co2  79  GLU79      -0.2457
     88  OE2       19.9380   -4.3460   14.6170 O.co2  79  GLU79      -0.2457
     89  N         16.8950   -0.7720   23.9670 N.3   120  LYS120     -0.1245
     90  CA        18.2480   -1.3610   24.0600 C.3   120  LYS120      0.1561
     91  C         18.8630   -0.9780   22.7210 C.2   120  LYS120      0.2260
     92  O         18.1460   -0.5640   21.8210 O.2   120  LYS120     -0.2867
     93  CB        18.1790   -2.9020   24.2310 C.3   120  LYS120      0.0271
     94  CG        17.2350   -3.6440   23.2060 C.3   120  LYS120      0.0035
     95  CD        17.3020   -5.1580   23.4130 C.3   120  LYS120      0.0206
     96  CE        16.4400   -5.9720   22.3780 C.3   120  LYS120      0.1093
     97  NZ        16.4550   -7.4260   22.7980 N.3   120  LYS120     -0.1314
     98  N         20.1500   -2.4650   20.2240 N.3   122  GLU122     -0.1231
     99  CA        19.7510   -3.1690   19.0040 C.3   122  GLU122      0.1699
    100  C         18.5270   -2.5120   18.3790 C.2   122  GLU122      0.2592
    101  O         18.3160   -2.6360   17.1830 O.2   122  GLU122     -0.2718
    102  CB        19.4500   -4.6630   19.2890 C.3   122  GLU122      0.0402
    103  CG        20.6740   -5.4180   19.8530 C.3   122  GLU122      0.1161
    104  CD        20.7300   -5.4200   21.3750 C.2   122  GLU122      0.3649
    105  OE1       20.4560   -4.3760   22.0170 O.co2 122  GLU122     -0.2457
    106  OE2       21.1080   -6.4650   21.9400 O.co2 122  GLU122     -0.2457
    107  N         17.7100   -1.8510   19.1950 N.am  123  ASN123     -0.1974
    108  CA        16.4470   -1.2410   18.7120 C.3   123  ASN123      0.1688
    109  C         16.5710    0.2460   18.4440 C.2   123  ASN123      0.2292
    110  O         15.5780    0.9160   18.1400 O.2   123  ASN123     -0.2864
    111  CB        15.3060   -1.4860   19.7120 C.3   123  ASN123      0.1181
    112  CG        14.7790   -2.9060   19.6590 C.2   123  ASN123      0.2629
    113  OD1       14.8690   -3.5630   18.6320 O.2   123  ASN123     -0.2716
    114  ND2       14.2400   -3.3910   20.7690 N.am  123  ASN123     -0.0877
    115  N         18.1670    2.8320   16.0300 N.3   125  LEU125     -0.1245
    116  CA        18.7970    2.9210   14.6940 C.3   125  LEU125      0.1561
    117  C         19.3400    4.3050   14.3980 C.2   125  LEU125      0.2260
    118  O         19.0290    5.2780   15.0970 O.2   125  LEU125     -0.2867
    119  CB        17.8520    2.4250   13.5760 C.3   125  LEU125      0.0270
    120  CG        17.1920    1.0660   13.8490 C.3   125  LEU125      0.0019
    121  CD1       16.1190    0.7120   12.7660 C.3   125  LEU125      0.0001
    122  CD2       18.2330   -0.0330   13.9720 C.3   125  LEU125      0.0001
    123  N         13.1540    2.2130   17.2570 N.3   135  SER135     -0.1202
    124  CA        12.4010    1.3330   16.3950 C.3   135  SER135      0.2020
    125  C         11.7770    0.1330   17.0980 C.2   135  SER135      0.2618
    126  O         12.2140   -0.2910   18.1860 O.2   135  SER135     -0.2717
    127  CB        13.2980    0.8140   15.2650 C.3   135  SER135      0.2103
    128  OG        14.0530   -0.2910   15.7200 O.3   135  SER135     -0.2182
    129  N         10.8310   -0.4780   16.3790 N.am  136  ASP136     -0.1973
    130  CA        10.1870   -1.7130   16.7840 C.3   136  ASP136      0.1709
    131  C          9.1430   -1.5280   17.8640 C.2   136  ASP136      0.2293
    132  O          9.4720   -1.4280   19.0290 O.2   136  ASP136     -0.2864
    133  CB        11.2230   -2.7530   17.2100 C.3   136  ASP136      0.1436
    134  CG        10.6620   -4.1740   17.1710 C.2   136  ASP136      0.3671
    135  OD1        9.4240   -4.2990   17.1530 O.co2 136  ASP136     -0.2456
    136  OD2       11.4510   -5.1520   17.1640 O.co2 136  ASP136     -0.2456
@<TRIPOS>BOND
     1    67    65   ar
     2    67    68   ar
     3    65    63   ar
     4    69    68    1
     5    68    66   ar
     6    20    21    1
     7    63    62    1
     8    63    64   ar
     9    62    59    1
    10    66    64   ar
    11    21    22    1
    12    21    24    1
    13    22    23    2
    14     8     6    1
    15     6     7    1
    16     6     5    1
    17    44    43    2
    18     1     2    1
    19    59    58    1
    20    59    60    1
    21    16    15    2
    22    15    14    1
    23    58    51   am
    24    41    42    1
    25    61    60    2
    26    25    26    1
    27    28    27    2
    28    60    70   am
    29    43    42    1
    30    43    49   am
    31     2     5    1
    32     2     3    1
    33    27    26    1
    34    51    50    1
    35    51    52    2
    36    50    49    1
    37    50    53    1
    38    42    45    1
    39    14    13    1
    40    14    17    1
    41    26    29    1
    42    70    71    1
    43    18    17    1
    44    72    73    2
    45    72    71    1
    46    54    53    1
    47    54    55    1
    48     3     9   am
    49     3     4    2
    50    71    74    1
    51    17    19    1
    52    45    46    1
    53     9    10    1
    54    29    30    1
    55    46    47    1
    56    46    48    1
    57    12    11    2
    58    56    55   ar
    59    55    57   ar
    60    10    11    1
    61    74    75    1
    62    30    31    1
    63    76    77    1
    64    77    78    1
    65    39    38    1
    66    31    32    1
    67    36    37    2
    68    36    35    1
    69    32    33    1
    70    78    79    2
    71    78    80   am
    72   121   120    1
    73    35    38    1
    74    35    34    1
    75    38    40    1
    76    80    81    1
    77   119   120    1
    78   119   116    1
    79   120   122    1
    80   117   116    1
    81   117   118    2
    82    85    86    1
    83    85    84    1
    84    88    86   ar
    85   116   115    1
    86    81    84    1
    87    81    82    1
    88    86    87   ar
    89   127   128    1
    90   127   124    1
    91    83    82    2
    92   129   130    1
    93   129   125   am
    94   124   125    1
    95   124   123    1
    96   130   133    1
    97   130   131    1
    98   125   126    2
    99   135   134   ar
   100   136   134   ar
   101   134   133    1
   102   101   100    2
   103   131   132    2
   104   110   109    2
   105   100    99    1
   106   100   107   am
   107   109   108    1
   108   113   112    2
   109   108   107    1
   110   108   111    1
   111    99   102    1
   112    99    98    1
   113   102   103    1
   114   112   111    1
   115   112   114   am
   116   103   104    1
   117   104   106   ar
   118   104   105   ar
   119    92    91    2
   120    96    97    1
   121    96    95    1
   122    91    90    1
   123    94    95    1
   124    94    93    1
   125    89    90    1
   126    90    93    1
