@<TRIPOS>MOLECULE
tmp/2qhnA00.pdb
 108 100 0 0 0
SMALL
GASTEIGER

@<TRIPOS>ATOM
      1  N         18.1130   -7.0100    6.0310 N.3    14  LEU14      -0.1231
      2  CA        18.5910   -6.0950    7.0680 C.3    14  LEU14       0.1693
      3  C         18.7590   -6.7560    8.4370 C.2    14  LEU14       0.2592
      4  O         19.6630   -6.4030    9.1900 O.2    14  LEU14      -0.2718
      5  CB        17.6810   -4.8610    7.1660 C.3    14  LEU14       0.0284
      6  CG        17.7840   -3.9750    5.9140 C.3    14  LEU14       0.0019
      7  CD1       16.8770   -2.7480    5.9630 C.3    14  LEU14       0.0001
      8  CD2       19.2210   -3.5990    5.6230 C.3    14  LEU14       0.0001
      9  N         17.8810   -7.7010    8.7560 N.am   15  GLY15      -0.1957
     10  CA        17.9360   -8.4020   10.0230 C.3    15  GLY15       0.1869
     11  C         16.8660   -9.4680   10.1250 C.2    15  GLY15       0.2309
     12  O         15.9900   -9.5500    9.2670 O.2    15  GLY15      -0.2863
     13  N         13.4820   -8.3090    8.0690 N.3    18  VAL18      -0.1245
     14  CA        13.4100   -6.9320    7.6210 C.3    18  VAL18       0.1561
     15  C         14.2410   -6.8820    6.3550 C.2    18  VAL18       0.2260
     16  O         15.3970   -7.2790    6.3750 O.2    18  VAL18      -0.2867
     17  CB        13.9460   -5.9480    8.6860 C.3    18  VAL18       0.0252
     18  CG1       13.9180   -4.5260    8.1450 C.3    18  VAL18       0.0019
     19  CG2       13.1290   -6.0560    9.9560 C.3    18  VAL18       0.0019
     20  N         12.5200    0.2330    4.5210 N.3    31  ALA31      -0.1245
     21  CA        12.6910   -1.0770    5.1190 C.3    31  ALA31       0.1562
     22  C         11.3110   -1.7120    5.1280 C.2    31  ALA31       0.2260
     23  O         10.2960   -1.0660    5.4070 O.2    31  ALA31      -0.2867
     24  CB        13.2460   -0.9770    6.5580 C.3    31  ALA31       0.0290
     25  N         11.2550    5.7050   14.2080 N.3    56  VAL56      -0.1245
     26  CA        11.2230    5.1440   12.8670 C.3    56  VAL56       0.1561
     27  C          9.8380    5.3840   12.2400 C.2    56  VAL56       0.2260
     28  O          8.8110    5.0310   12.8240 O.2    56  VAL56      -0.2867
     29  CB        11.6120    3.6430   12.8800 C.3    56  VAL56       0.0252
     30  CG1       11.2020    2.9620   11.5660 C.3    56  VAL56       0.0019
     31  CG2       13.1100    3.4880   13.1560 C.3    56  VAL56       0.0019
     32  N          8.5690    0.7490    6.5040 N.3    72  LEU72      -0.1231
     33  CA         9.1750    1.6090    7.5130 C.3    72  LEU72       0.1693
     34  C         10.3640    2.4040    6.9840 C.2    72  LEU72       0.2592
     35  O         11.0350    1.9990    6.0380 O.2    72  LEU72      -0.2718
     36  CB         9.6890    0.7080    8.6430 C.3    72  LEU72       0.0284
     37  CG         8.6390   -0.2200    9.2870 C.3    72  LEU72       0.0019
     38  CD1        9.2940   -1.3930   10.0210 C.3    72  LEU72       0.0001
     39  CD2        7.7160    0.5830   10.2190 C.3    72  LEU72       0.0001
     40  N         10.6900    3.4680    7.7000 N.am   73  GLU73      -0.1966
     41  CA        11.8300    4.2980    7.3750 C.3    73  GLU73       0.1733
     42  C         13.1270    3.4730    7.3660 C.2    73  GLU73       0.2616
     43  O         13.3840    2.6650    8.2770 O.2    73  GLU73      -0.2715
     44  CB        11.9180    5.3890    8.4440 C.3    73  GLU73       0.0429
     45  CG        13.1460    6.2350    8.3690 C.3    73  GLU73       0.1163
     46  CD        13.1050    7.3680    9.3640 C.2    73  GLU73       0.3649
     47  OE1       14.0180    8.2210    9.2980 O.co2  73  GLU73      -0.2457
     48  OE2       12.1720    7.3890   10.2130 O.co2  73  GLU73      -0.2457
     49  N         13.9300    3.6310    6.3240 N.am   74  TYR74      -0.1960
     50  CA        15.2000    2.9180    6.2710 C.3    74  TYR74       0.1771
     51  C         16.2450    3.7820    6.9720 C.2    74  TYR74       0.2620
     52  O         16.3800    4.9750    6.6720 O.2    74  TYR74      -0.2715
     53  CB        15.6260    2.6720    4.8090 C.3    74  TYR74       0.0574
     54  CG        17.0540    2.1790    4.6500 C.ar   74  TYR74      -0.0198
     55  CD1       17.4720    0.9720    5.2180 C.ar   74  TYR74      -0.0009
     56  CD2       17.9670    2.8810    3.8670 C.ar   74  TYR74      -0.0009
     57  CE1       18.7650    0.4830    5.0130 C.ar   74  TYR74       0.0417
     58  CE2       19.2660    2.4060    3.6740 C.ar   74  TYR74       0.0417
     59  CZ        19.6650    1.2230    4.2770 C.ar   74  TYR74       0.1957
     60  OH        20.9560    0.7510    4.1210 O.3    74  TYR74      -0.2866
     61  N         16.9920    3.1720    7.8820 N.am   75  CYS75      -0.1954
     62  CA        18.0250    3.8740    8.6530 C.3    75  CYS75       0.1843
     63  C         19.3950    3.3490    8.2400 C.2    75  CYS75       0.2626
     64  O         19.8720    2.3360    8.7440 O.2    75  CYS75      -0.2714
     65  CB        17.7600    3.7010   10.1630 C.3    75  CYS75       0.0997
     66  SG        16.1230    4.3220   10.7080 S.3    75  CYS75      -0.0797
     67  N         20.0050    4.0170    7.2630 N.am   76  SER76      -0.1950
     68  CA        21.2760    3.5450    6.6980 C.3    76  SER76       0.1924
     69  C         22.4630    3.4080    7.6290 C.2    76  SER76       0.2314
     70  O         23.3950    2.6700    7.3190 O.2    76  SER76      -0.2863
     71  CB        21.6700    4.3270    5.4430 C.3    76  SER76       0.2116
     72  OG        21.8180    5.7140    5.6970 O.3    76  SER76      -0.2180
     73  N         22.4500    1.9470   10.4570 N.3    78  GLY78      -0.1210
     74  CA        22.3390    0.6740   11.1500 C.3    78  GLY78       0.1956
     75  C         21.9820    0.8060   12.6250 C.2    78  GLY78       0.2611
     76  O         21.3830    1.7930   13.0350 O.2    78  GLY78      -0.2717
     77  N         22.2830   -0.2320   13.3880 N.am   79  GLU79      -0.1979
     78  CA        21.9610   -0.2940   14.8090 C.3    79  GLU79       0.1602
     79  C         22.9390    0.4750   15.6590 C.2    79  GLU79       0.2287
     80  O         24.1330    0.4540   15.4210 O.2    79  GLU79      -0.2864
     81  CB        21.9950   -1.7460   15.2880 C.3    79  GLU79       0.0415
     82  CG        20.7940   -2.5720   14.8710 C.3    79  GLU79       0.1163
     83  CD        20.9190   -4.0290   15.3010 C.2    79  GLU79       0.3649
     84  OE1       20.2250   -4.8580   14.6900 O.co2  79  GLU79      -0.2457
     85  OE2       21.6920   -4.3470   16.2410 O.co2  79  GLU79      -0.2457
     86  N         19.9140   -2.6510   20.1040 N.3   122  GLU122     -0.1245
     87  CA        19.4290   -3.3200   18.8900 C.3   122  GLU122      0.1567
     88  C         18.1860   -2.6540   18.2990 C.2   122  GLU122      0.2260
     89  O         17.9080   -2.7840   17.1060 O.2   122  GLU122     -0.2867
     90  CB        19.1080   -4.8000   19.1660 C.3   122  GLU122      0.0388
     91  CG        20.3110   -5.5950   19.7200 C.3   122  GLU122      0.1160
     92  CD        20.4260   -5.6110   21.2510 C.2   122  GLU122      0.3649
     93  OE1       20.1170   -4.6010   21.9200 O.co2 122  GLU122     -0.2457
     94  OE2       20.9570   -6.6120   21.7920 O.co2 122  GLU122     -0.2457
     95  N         18.0230    2.7160   15.9450 N.3   125  LEU125     -0.1245
     96  CA        18.7000    2.7690   14.6380 C.3   125  LEU125      0.1561
     97  C         19.2290    4.1630   14.3650 C.2   125  LEU125      0.2260
     98  O         18.8160    5.1350   14.9980 O.2   125  LEU125     -0.2867
     99  CB        17.7490    2.3150   13.5290 C.3   125  LEU125      0.0270
    100  CG        17.0460    0.9910   13.8840 C.3   125  LEU125      0.0019
    101  CD1       15.9780    0.6610   12.7810 C.3   125  LEU125      0.0001
    102  CD2       18.0900   -0.1100   14.0130 C.3   125  LEU125      0.0001
    103  N         13.0130    2.1160   17.2360 N.3   135  SER135     -0.1217
    104  CA        12.3980    1.1230   16.3650 C.3   135  SER135      0.1889
    105  C         11.7800   -0.0770   17.0850 C.2   135  SER135      0.2288
    106  O         12.1510   -0.4160   18.2300 O.2   135  SER135     -0.2866
    107  CB        13.4230    0.5750   15.3630 C.3   135  SER135      0.2089
    108  OG        12.7590    0.0790   14.2040 O.3   135  SER135     -0.2183
@<TRIPOS>BOND
     1    58    56   ar
     2    58    59   ar
     3    56    54   ar
     4    60    59    1
     5    59    57   ar
     6    20    21    1
     7    54    53    1
     8    54    55   ar
     9    53    50    1
    10    57    55   ar
    11    21    22    1
    12    21    24    1
    13    22    23    2
    14    71    72    1
    15    71    68    1
    16     8     6    1
    17     6     7    1
    18     6     5    1
    19     1     2    1
    20    35    34    2
    21    50    49    1
    22    50    51    1
    23    49    42   am
    24    15    16    2
    25    15    14    1
    26    32    33    1
    27    52    51    2
    28    68    67    1
    29    68    69    1
    30    51    61   am
    31    34    33    1
    32    34    40   am
    33     2     5    1
    34     2     3    1
    35    67    63   am
    36    70    69    2
    37    42    41    1
    38    42    43    2
    39    41    40    1
    40    41    44    1
    41    33    36    1
    42    14    13    1
    43    14    17    1
    44    61    62    1
    45    18    17    1
    46    63    62    1
    47    63    64    2
    48    45    44    1
    49    45    46    1
    50     3     9   am
    51     3     4    2
    52    36    37    1
    53    62    65    1
    54    17    19    1
    55     9    10    1
    56    12    11    2
    57    37    38    1
    58    37    39    1
    59    47    46   ar
    60    46    48   ar
    61    10    11    1
    62    65    66    1
    63    73    74    1
    64    74    75    1
    65    30    29    1
    66    27    28    2
    67    27    26    1
    68    75    76    2
    69    75    77   am
    70   101   100    1
    71    26    29    1
    72    26    25    1
    73    29    31    1
    74    77    78    1
    75    99   100    1
    76    99    96    1
    77   100   102    1
    78   108   107    1
    79    97    96    1
    80    97    98    2
    81    96    95    1
    82    84    83   ar
    83    78    81    1
    84    78    79    1
    85    82    81    1
    86    82    83    1
    87    83    85   ar
    88   107   104    1
    89    80    79    2
    90   104   105    1
    91   104   103    1
    92   105   106    2
    93    89    88    2
    94    88    87    1
    95    87    90    1
    96    87    86    1
    97    90    91    1
    98    91    92    1
    99    92    94   ar
   100    92    93   ar
