@<TRIPOS>MOLECULE
tmp/2qhrB00.pdb
 108 107 0 0 0
SMALL
GASTEIGER

@<TRIPOS>ATOM
      1  N         67.0670  -29.6250   52.3920 N.3    27  GLN27      -0.1231
      2  CA        67.9250  -28.8630   51.4660 C.3    27  GLN27       0.1698
      3  C         69.3910  -28.5870   51.9790 C.2    27  GLN27       0.2592
      4  O         70.2240  -28.0190   51.2500 O.2    27  GLN27      -0.2718
      5  CB        67.1990  -27.5190   51.0390 C.3    27  GLN27       0.0381
      6  CG        65.7330  -27.7310   50.6640 C.3    27  GLN27       0.0905
      7  CD        65.6100  -28.6080   49.4300 C.2    27  GLN27       0.2608
      8  OE1       66.3080  -28.4430   48.4350 O.2    27  GLN27      -0.2717
      9  NE2       64.6660  -29.5220   49.5150 N.am   27  GLN27      -0.0878
     10  N         69.6900  -29.0210   53.2100 N.am   28  HIS28      -0.1976
     11  CA        71.0040  -28.8540   53.8590 C.3    28  HIS28       0.1656
     12  C         71.5460  -30.1940   54.2720 C.2    28  HIS28       0.2291
     13  O         72.3930  -30.3020   55.1480 O.2    28  HIS28      -0.2864
     14  CB        70.8180  -27.9600   55.0950 C.3    28  HIS28       0.0771
     15  CG        70.1220  -26.6800   54.7500 C.ar   28  HIS28       0.0820
     16  ND1       68.8250  -26.3980   55.1480 N.ar   28  HIS28      -0.2267
     17  CD2       70.4930  -25.6740   53.9220 C.ar   28  HIS28       0.1154
     18  CE1       68.4530  -25.2440   54.6120 C.ar   28  HIS28       0.1986
     19  NE2       69.4460  -24.7840   53.8650 N.ar   28  HIS28      -0.2212
     20  N         73.6040  -32.1730   53.1370 N.3    30  THR30      -0.1203
     21  CA        75.0460  -32.4140   53.0270 C.3    30  THR30       0.1994
     22  C         75.9410  -31.6130   54.0170 C.2    30  THR30       0.2618
     23  O         77.1730  -31.6970   53.9350 O.2    30  THR30      -0.2717
     24  CB        75.5550  -32.1110   51.6030 C.3    30  THR30       0.1784
     25  OG1       75.4810  -30.6960   51.3550 O.3    30  THR30      -0.2211
     26  CG2       74.7130  -32.9010   50.5070 C.3    30  THR30       0.0376
     27  N         75.3570  -30.8530   54.9490 N.am   31  TYR31      -0.1961
     28  CA        76.1840  -29.9790   55.8440 C.3    31  TYR31       0.1771
     29  C         77.1260  -30.6750   56.8580 C.2    31  TYR31       0.2620
     30  O         76.8600  -31.7410   57.3560 O.2    31  TYR31      -0.2715
     31  CB        75.2800  -28.9900   56.6260 C.3    31  TYR31       0.0574
     32  CG        74.8380  -27.8610   55.7220 C.ar   31  TYR31      -0.0198
     33  CD1       74.6520  -28.0780   54.3520 C.ar   31  TYR31      -0.0009
     34  CD2       74.6360  -26.5740   56.2010 C.ar   31  TYR31      -0.0009
     35  CE1       74.2560  -27.0480   53.4870 C.ar   31  TYR31       0.0417
     36  CE2       74.2510  -25.5230   55.3130 C.ar   31  TYR31       0.0417
     37  CZ        74.0770  -25.7730   53.9690 C.ar   31  TYR31       0.1957
     38  OH        73.6960  -24.7590   53.0820 O.3    31  TYR31      -0.2866
     39  N         78.2370  -30.0200   57.1500 N.am   32  THR32      -0.1951
     40  CA        79.1250  -30.3830   58.2620 C.3    32  THR32       0.1897
     41  C         78.5640  -29.7590   59.5050 C.2    32  THR32       0.2313
     42  O         78.3180  -28.5210   59.5460 O.2    32  THR32      -0.2863
     43  CB        80.5160  -29.7900   57.9650 C.3    32  THR32       0.1794
     44  OG1       81.0600  -30.5420   56.8830 O.3    32  THR32      -0.2208
     45  CG2       81.5260  -29.8520   59.1990 C.3    32  THR32       0.0378
     46  N         75.1100  -25.9760   63.7130 N.3    94  VAL94      -0.1231
     47  CA        75.4370  -25.9570   62.2970 C.3    94  VAL94       0.1692
     48  C         75.5040  -24.5540   61.7840 C.2    94  VAL94       0.2593
     49  O         74.6480  -23.7310   62.0900 O.2    94  VAL94      -0.2718
     50  CB        74.4970  -26.8600   61.3810 C.3    94  VAL94       0.0266
     51  CG1       72.9780  -26.3100   61.2680 C.3    94  VAL94       0.0020
     52  CG2       75.1770  -27.0470   59.9980 C.3    94  VAL94       0.0020
     53  N         76.5090  -24.2620   60.9620 N.am   95  GLY95      -0.1942
     54  CA        76.6270  -22.8930   60.4700 C.3    95  GLY95       0.2014
     55  C         76.4640  -22.7160   58.9420 C.2    95  GLY95       0.2639
     56  O         76.5010  -23.6830   58.1740 O.2    95  GLY95      -0.2714
     57  N         76.3520  -21.4770   58.4620 N.am   96  ASP96      -0.1957
     58  CA        76.3680  -21.3000   57.0280 C.3    96  ASP96       0.1840
     59  C         76.6070  -19.8500   56.8520 C.2    96  ASP96       0.2623
     60  O         76.5240  -19.0750   57.8130 O.2    96  ASP96      -0.2715
     61  CB        74.9820  -21.7000   56.3720 C.3    96  ASP96       0.1450
     62  CG        75.0810  -21.9900   54.8260 C.2    96  ASP96       0.3671
     63  OD1       76.1930  -21.8860   54.2160 O.co2  96  ASP96      -0.2456
     64  OD2       74.0360  -22.3440   54.2090 O.co2  96  ASP96      -0.2456
     65  N         76.9300  -19.4560   55.6240 N.am   97  THR97      -0.1937
     66  CA        76.9540  -18.0210   55.3140 C.3    97  THR97       0.2028
     67  C         76.1290  -17.8370   54.0510 C.2    97  THR97       0.2642
     68  O         76.5290  -18.2760   53.0010 O.2    97  THR97      -0.2714
     69  CB        78.3940  -17.4640   55.1560 C.3    97  THR97       0.1808
     70  OG1       79.0980  -17.7040   56.3630 O.3    97  THR97      -0.2208
     71  CG2       78.3950  -15.9140   54.9350 C.3    97  THR97       0.0379
     72  N         74.9600  -17.2230   54.1620 N.am   98  ILE98      -0.1963
     73  CA        74.0000  -17.2110   53.0290 C.3    98  ILE98       0.1727
     74  C         73.8150  -15.7940   52.5810 C.2    98  ILE98       0.2616
     75  O         73.4460  -14.9310   53.3840 O.2    98  ILE98      -0.2715
     76  CB        72.6550  -17.8120   53.4770 C.3    98  ILE98       0.0290
     77  CG1       72.9360  -19.1600   54.1490 C.3    98  ILE98       0.0022
     78  CG2       71.7420  -17.9570   52.2940 C.3    98  ILE98       0.0023
     79  CD1       71.8010  -19.8260   54.9600 C.3    98  ILE98       0.0001
     80  N         74.1310  -15.5090   51.3300 N.am   99  LYS99      -0.1963
     81  CA        74.1080  -14.1180   50.8800 C.3    99  LYS99       0.1728
     82  C         74.9420  -13.1910   51.8040 C.2    99  LYS99       0.2616
     83  O         74.4960  -12.0960   52.2130 O.2    99  LYS99      -0.2715
     84  CB        72.6450  -13.6530   50.7360 C.3    99  LYS99       0.0311
     85  CG        71.9440  -14.3240   49.5370 C.3    99  LYS99       0.0038
     86  CD        70.4180  -14.1730   49.5260 C.3    99  LYS99       0.0206
     87  CE        69.7290  -15.2100   48.5930 C.3    99  LYS99       0.1093
     88  NZ        69.4830  -16.5810   49.2030 N.3    99  LYS99      -0.1314
     89  N         76.1420  -13.6580   52.1560 N.am  100  GLU100     -0.1977
     90  CA        77.0410  -12.8930   53.0310 C.3   100  GLU100      0.1602
     91  C         76.4760  -12.5380   54.4130 C.2   100  GLU100      0.2287
     92  O         76.9220  -11.5980   55.0700 O.2   100  GLU100     -0.2864
     93  CB        77.4980  -11.6630   52.2950 C.3   100  GLU100      0.0415
     94  CG        77.9620  -12.0230   50.8950 C.3   100  GLU100      0.1163
     95  CD        77.8870  -10.8550   49.9170 C.2   100  GLU100      0.3649
     96  OE1       78.4800   -9.7760   50.2130 O.co2 100  GLU100     -0.2457
     97  OE2       77.2280  -11.0320   48.8520 O.co2 100  GLU100     -0.2457
     98  N         76.1580  -14.4790   57.9410 N.3   102  PHE102     -0.1241
     99  CA        76.5160  -15.6120   58.7730 C.3   102  PHE102      0.1605
    100  C         75.2440  -16.0810   59.5690 C.2   102  PHE102      0.2264
    101  O         74.4900  -15.2560   60.1150 O.2   102  PHE102     -0.2867
    102  CB        77.6220  -15.0900   59.6960 C.3   102  PHE102      0.0534
    103  CG        78.1760  -16.0940   60.6830 C.ar  102  PHE102     -0.0203
    104  CD1       79.5040  -16.5100   60.5930 C.ar  102  PHE102     -0.0042
    105  CD2       77.4120  -16.5480   61.7440 C.ar  102  PHE102     -0.0042
    106  CE1       80.0470  -17.3600   61.5890 C.ar  102  PHE102     -0.0003
    107  CE2       77.9540  -17.4220   62.7440 C.ar  102  PHE102     -0.0003
    108  CZ        79.2750  -17.8320   62.6380 C.ar  102  PHE102     -0.0000
@<TRIPOS>BOND
     1     8     7    2
     2    87    88    1
     3    87    86    1
     4    97    95   ar
     5     7     9   am
     6     7     6    1
     7    86    85    1
     8    85    84    1
     9    95    96   ar
    10    95    94    1
    11    26    24    1
    12     6     5    1
    13    84    81    1
    14    81    80    1
    15    81    82    1
    16    94    93    1
    17     5     2    1
    18     4     3    2
    19    80    74   am
    20    25    24    1
    21     2     3    1
    22     2     1    1
    23    24    21    1
    24    82    89   am
    25    82    83    2
    26     3    10   am
    27    89    90    1
    28    78    76    1
    29    93    90    1
    30    74    73    1
    31    74    75    2
    32    68    67    2
    33    21    20    1
    34    21    22    1
    35    73    76    1
    36    73    72    1
    37    90    91    1
    38    38    37    1
    39    10    11    1
    40    76    77    1
    41    35    37   ar
    42    35    33   ar
    43    11    12    1
    44    11    14    1
    45    19    17   ar
    46    19    18   ar
    47    17    15   ar
    48    23    22    2
    49    37    36   ar
    50    22    27   am
    51    67    72   am
    52    67    66    1
    53    77    79    1
    54    64    62   ar
    55    63    62   ar
    56    12    13    2
    57    33    32   ar
    58    91    92    2
    59    18    16   ar
    60    15    14    1
    61    15    16   ar
    62    62    61    1
    63    71    69    1
    64    27    28    1
    65    69    66    1
    66    69    70    1
    67    36    34   ar
    68    66    65    1
    69    65    59   am
    70    32    34   ar
    71    32    31    1
    72    28    31    1
    73    28    29    1
    74    61    58    1
    75    59    58    1
    76    59    60    2
    77    29    39   am
    78    29    30    2
    79    44    43    1
    80    58    57    1
    81    39    40    1
    82    98    99    1
    83    43    40    1
    84    43    45    1
    85    56    55    2
    86    40    41    1
    87    57    55   am
    88    99   100    1
    89    99   102    1
    90    55    54    1
    91    41    42    2
    92   100   101    2
    93   102   103    1
    94    52    50    1
    95    54    53    1
    96   104   103   ar
    97   104   106   ar
    98   103   105   ar
    99    53    48   am
   100    51    50    1
   101    50    47    1
   102   106   108   ar
   103   105   107   ar
   104    48    49    2
   105    48    47    1
   106    47    46    1
   107   108   107   ar
