@<TRIPOS>MOLECULE
tmp/2qhvA00.pdb
 138 134 0 0 0
SMALL
GASTEIGER

@<TRIPOS>ATOM
      1  N        -22.3460   19.2900  -14.0600 N.3    75  ARG75      -0.1231
      2  CA       -20.9660   19.2050  -13.5860 C.3    75  ARG75       0.1694
      3  C        -19.9890   19.4240  -14.7300 C.2    75  ARG75       0.2593
      4  O        -20.3490   19.2850  -15.9050 O.2    75  ARG75      -0.2718
      5  CB       -20.6900   17.8420  -12.9480 C.3    75  ARG75       0.0321
      6  CG       -20.9740   16.6630  -13.8620 C.3    75  ARG75       0.0489
      7  CD       -20.0170   15.5160  -13.6410 C.3    75  ARG75       0.2205
      8  NE       -20.4040   14.3890  -14.4870 N.pl3  75  ARG75      -0.0865
      9  CZ       -20.0760   14.2520  -15.7650 C.cat  75  ARG75       0.5346
     10  NH1      -19.2950   15.1530  -16.3650 N.pl3  75  ARG75       0.1354
     11  NH2      -20.5250   13.2040  -16.4410 N.pl3  75  ARG75       0.1354
     12  N        -18.7520   19.7580  -14.3690 N.am   76  GLY76      -0.1942
     13  CA       -17.6590   19.8220  -15.3310 C.3    76  GLY76       0.2014
     14  C        -17.3960   18.4840  -15.9990 C.2    76  GLY76       0.2639
     15  O        -17.7560   17.4340  -15.4640 O.2    76  GLY76      -0.2714
     16  N        -16.7740   18.5420  -17.1770 N.am   77  GLY77      -0.1939
     17  CA       -16.3810   17.3490  -17.9350 C.3    77  GLY77       0.2014
     18  C        -17.4300   16.8730  -18.9300 C.2    77  GLY77       0.2639
     19  O        -18.4710   17.4970  -19.1070 O.2    77  GLY77      -0.2714
     20  N        -17.1440   15.7630  -19.6090 N.am   78  ASP78      -0.1957
     21  CA       -18.0940   15.2300  -20.5820 C.3    78  ASP78       0.1840
     22  C        -18.8460   14.0030  -20.0780 C.2    78  ASP78       0.2622
     23  O        -19.6380   14.1070  -19.1280 O.2    78  ASP78      -0.2715
     24  CB       -17.5320   15.0940  -22.0260 C.3    78  ASP78       0.1450
     25  CG       -16.2770   14.2380  -22.1460 C.2    78  ASP78       0.3671
     26  OD1      -15.5080   14.5200  -23.0940 O.co2  78  ASP78      -0.2456
     27  OD2      -16.0600   13.2800  -21.3810 O.co2  78  ASP78      -0.2456
     28  N        -18.6200   12.8560  -20.6990 N.am   79  VAL79      -0.1963
     29  CA       -19.3780   11.6580  -20.3360 C.3    79  VAL79       0.1727
     30  C        -18.6450   10.8410  -19.2820 C.2    79  VAL79       0.2616
     31  O        -17.4160   10.7760  -19.2640 O.2    79  VAL79      -0.2715
     32  CB       -19.6730   10.7900  -21.5880 C.3    79  VAL79       0.0290
     33  CG1      -18.3590   10.2170  -22.1820 C.3    79  VAL79       0.0023
     34  CG2      -20.6700    9.6780  -21.2870 C.3    79  VAL79       0.0023
     35  N        -19.4080   10.2200  -18.3890 N.am   80  THR80      -0.1951
     36  CA       -18.8170    9.2500  -17.4810 C.3    80  THR80       0.1897
     37  C        -19.8110    8.1480  -17.1500 C.2    80  THR80       0.2313
     38  O        -20.9820    8.2400  -17.4960 O.2    80  THR80      -0.2863
     39  CB       -18.2170    9.8950  -16.2110 C.3    80  THR80       0.1794
     40  OG1      -17.2130    9.0190  -15.6860 O.3    80  THR80      -0.2208
     41  CG2      -19.2820   10.1600  -15.1510 C.3    80  THR80       0.0378
     42  N        -20.9870    5.5330  -13.8630 N.3    82  HIS82      -0.1241
     43  CA       -20.9790    5.0810  -12.4680 C.3    82  HIS82       0.1621
     44  C        -21.6980    3.7500  -12.3820 C.2    82  HIS82       0.2264
     45  O        -22.6930    3.5270  -13.0630 O.2    82  HIS82      -0.2867
     46  CB       -21.6880    6.0900  -11.5500 C.3    82  HIS82       0.0745
     47  CG       -21.2140    7.5000  -11.7290 C.ar   82  HIS82       0.0817
     48  ND1      -19.8850    7.8570  -11.6180 N.ar   82  HIS82      -0.2268
     49  CD2      -21.8890    8.6370  -12.0190 C.ar   82  HIS82       0.1154
     50  CE1      -19.7630    9.1560  -11.8400 C.ar   82  HIS82       0.1986
     51  NE2      -20.9640    9.6520  -12.0800 N.ar   82  HIS82      -0.2212
     52  N        -18.4190    6.6460   -5.2900 N.3    88  VAL88      -0.1245
     53  CA       -18.7720    8.0060   -5.6730 C.3    88  VAL88       0.1561
     54  C        -18.7810    8.8860   -4.4260 C.2    88  VAL88       0.2260
     55  O        -19.3840    8.5300   -3.4180 O.2    88  VAL88      -0.2867
     56  CB       -20.1530    8.0190   -6.3900 C.3    88  VAL88       0.0252
     57  CG1      -20.6150    9.4500   -6.6360 C.3    88  VAL88       0.0019
     58  CG2      -20.0760    7.2590   -7.6900 C.3    88  VAL88       0.0019
     59  N        -19.4910   12.9140   -3.1070 N.3    90  TYR90      -0.1241
     60  CA       -19.9920   14.2460   -3.4030 C.3    90  TYR90       0.1605
     61  C        -19.6580   15.1430   -2.2100 C.2    90  TYR90       0.2264
     62  O        -20.3860   15.1620   -1.2010 O.2    90  TYR90      -0.2867
     63  CB       -21.5050   14.1850   -3.6070 C.3    90  TYR90       0.0534
     64  CG       -21.9810   13.3780   -4.7920 C.ar   90  TYR90      -0.0201
     65  CD1      -21.3000   13.4060   -6.0160 C.ar   90  TYR90      -0.0009
     66  CD2      -23.1370   12.6090   -4.7060 C.ar   90  TYR90      -0.0009
     67  CE1      -21.7690   12.7040   -7.1220 C.ar   90  TYR90       0.0417
     68  CE2      -23.6110   11.9050   -5.8020 C.ar   90  TYR90       0.0417
     69  CZ       -22.9230   11.9350   -7.0030 C.ar   90  TYR90       0.1957
     70  OH       -23.3980   11.2450   -8.1090 O.3    90  TYR90      -0.2866
     71  N         -7.8380   15.9120  -16.6080 N.3   128  ALA128     -0.1245
     72  CA        -8.7320   15.9550  -15.4560 C.3   128  ALA128      0.1562
     73  C         -8.7780   14.5630  -14.8120 C.2   128  ALA128      0.2260
     74  O         -8.5870   13.5510  -15.5070 O.2   128  ALA128     -0.2867
     75  CB       -10.1230   16.3880  -15.8910 C.3   128  ALA128      0.0290
     76  N         -7.0080    5.9950  -16.0290 N.3   136  LYS136     -0.1245
     77  CA        -7.7010    6.8730  -15.0850 C.3   136  LYS136      0.1561
     78  C         -8.2900    6.0540  -13.9480 C.2   136  LYS136      0.2260
     79  O         -9.1110    5.1620  -14.1690 O.2   136  LYS136     -0.2867
     80  CB        -8.7880    7.7020  -15.7900 C.3   136  LYS136      0.0271
     81  CG        -9.4350    8.7330  -14.8800 C.3   136  LYS136      0.0035
     82  CD       -10.7230    9.2880  -15.4710 C.3   136  LYS136      0.0206
     83  CE       -10.5130   10.5790  -16.2120 C.3   136  LYS136      0.1093
     84  NZ       -11.8510   11.0700  -16.6800 N.3   136  LYS136     -0.1314
     85  N        -12.3910    9.6430  -11.6810 N.3   139  ALA139     -0.1231
     86  CA       -12.9110   10.7760  -12.4480 C.3   139  ALA139      0.1694
     87  C        -13.3160   11.8650  -11.4710 C.2   139  ALA139      0.2592
     88  O        -13.7280   11.5780  -10.3520 O.2   139  ALA139     -0.2718
     89  CB       -14.0980   10.3440  -13.3080 C.3   139  ALA139      0.0304
     90  N        -13.1510   13.1180  -11.8830 N.am  140  ILE140     -0.1966
     91  CA       -13.5400   14.2490  -11.0540 C.3   140  ILE140      0.1727
     92  C        -14.2630   15.2750  -11.9160 C.2   140  ILE140      0.2616
     93  O        -13.7620   15.6690  -12.9770 O.2   140  ILE140     -0.2715
     94  CB       -12.3060   14.9230  -10.3660 C.3   140  ILE140      0.0290
     95  CG1      -11.5310   13.9110   -9.5220 C.3   140  ILE140      0.0022
     96  CG2      -12.7560   16.1040   -9.4920 C.3   140  ILE140      0.0023
     97  CD1      -10.1700   14.3860   -9.0610 C.3   140  ILE140      0.0001
     98  N        -15.4370   15.6940  -11.4530 N.am  141  GLY141     -0.1955
     99  CA       -16.2720   16.6810  -12.1500 C.3   141  GLY141      0.1869
    100  C        -17.2310   17.2830  -11.1460 C.2   141  GLY141      0.2309
    101  O        -18.0340   16.5810  -10.5420 O.2   141  GLY141     -0.2863
    102  N        -21.7480   17.5640   -6.9780 N.3   151  HIS151     -0.1226
    103  CA       -21.0600   16.5160   -7.7360 C.3   151  HIS151      0.1752
    104  C        -19.7350   16.2290   -7.0350 C.2   151  HIS151      0.2597
    105  O        -19.6660   16.3660   -5.8260 O.2   151  HIS151     -0.2718
    106  CB       -20.9770   16.8480   -9.2260 C.3   151  HIS151      0.0759
    107  CG       -22.3250   16.8920   -9.8750 C.ar  151  HIS151      0.0818
    108  ND1      -23.0890   15.7600  -10.0700 N.ar  151  HIS151     -0.2268
    109  CD2      -23.0750   17.9330  -10.3180 C.ar  151  HIS151      0.1154
    110  CE1      -24.2370   16.0950  -10.6300 C.ar  151  HIS151      0.1986
    111  NE2      -24.2580   17.4090  -10.7850 N.ar  151  HIS151     -0.2212
    112  N        -18.6910   15.8040   -7.7400 N.am  152  GLY152     -0.1942
    113  CA       -17.5030   15.4030   -6.9920 C.3   152  GLY152      0.2014
    114  C        -16.5760   14.4660   -7.7210 C.2   152  GLY152      0.2639
    115  O        -16.0330   14.8320   -8.7440 O.2   152  GLY152     -0.2714
    116  N        -16.4110   13.2520   -7.1970 N.am  153  PHE153     -0.1959
    117  CA       -15.4360   12.3120   -7.7470 C.3   153  PHE153      0.1771
    118  C        -15.9940   10.8950   -7.7800 C.2   153  PHE153      0.2619
    119  O        -16.9760   10.5860   -7.1020 O.2   153  PHE153     -0.2715
    120  CB       -14.1320   12.3610   -6.9440 C.3   153  PHE153      0.0574
    121  CG       -14.2710   11.8530   -5.5370 C.ar  153  PHE153     -0.0200
    122  CD1      -14.1340   10.4890   -5.2650 C.ar  153  PHE153     -0.0042
    123  CD2      -14.5470   12.7270   -4.4890 C.ar  153  PHE153     -0.0042
    124  CE1      -14.2640    9.9930   -3.9520 C.ar  153  PHE153     -0.0003
    125  CE2      -14.6720   12.2510   -3.1730 C.ar  153  PHE153     -0.0003
    126  CZ       -14.5380   10.8840   -2.9110 C.ar  153  PHE153     -0.0000
    127  N        -15.3460   10.0380   -8.5670 N.am  154  ALA154     -0.1977
    128  CA       -15.7740    8.6530   -8.7160 C.3   154  ALA154      0.1597
    129  C        -14.5310    7.7840   -8.7950 C.2   154  ALA154      0.2287
    130  O        -13.8710    7.7210   -9.8330 O.2   154  ALA154     -0.2864
    131  CB       -16.6250    8.4960   -9.9470 C.3   154  ALA154      0.0319
    132  N        -15.1270    9.4370  -24.2850 N.3   169  PRO169     -0.2116
    133  CA       -14.6510   10.7640  -23.8820 C.3   169  PRO169      0.1372
    134  C        -14.0270   11.5500  -25.0320 C.2   169  PRO169      0.2244
    135  O        -13.4580   10.9560  -25.9500 O.2   169  PRO169     -0.2868
    136  CB       -13.5710   10.4450  -22.8460 C.3   169  PRO169      0.0268
    137  CG       -13.9540    9.1350  -22.2980 C.3   169  PRO169      0.0207
    138  CD       -14.5600    8.3740  -23.4390 C.3   169  PRO169      0.0892
@<TRIPOS>BOND
     1   135   134    2
     2   134   133    1
     3   132   133    1
     4   132   138    1
     5   133   136    1
     6   138   137    1
     7    26    25   ar
     8   136   137    1
     9    33    32    1
    10    25    24    1
    11    25    27   ar
    12    24    21    1
    13    32    34    1
    14    32    29    1
    15    28    29    1
    16    28    22   am
    17    21    22    1
    18    21    20    1
    19    29    30    1
    20    22    23    2
    21    20    18   am
    22    30    31    2
    23    30    35   am
    24    19    18    2
    25    18    17    1
    26    35    36    1
    27    17    16    1
    28    38    37    2
    29    36    37    1
    30    36    39    1
    31    16    14   am
    32    84    83    1
    33    71    72    1
    34    11     9    1
    35    10     9    1
    36    83    82    1
    37    39    40    1
    38    39    41    1
    39    76    77    1
    40    14    15    2
    41    14    13    1
    42     4     3    2
    43    75    72    1
    44    80    77    1
    45    80    81    1
    46     9     8    2
    47    74    73    2
    48    82    81    1
    49    72    73    1
    50    13    12    1
    51    77    78    1
    52     3    12   am
    53     3     2    1
    54     8     7    1
    55    79    78    2
    56     1     2    1
    57    42    43    1
    58     6     7    1
    59     6     5    1
    60     2     5    1
    61    89    86    1
    62    45    44    2
    63    93    92    2
    64    43    44    1
    65    43    46    1
    66    86    85    1
    67    86    87    1
    68    99    98    1
    69    99   100    1
    70    51    49   ar
    71    51    50   ar
    72    49    47   ar
    73    92    98   am
    74    92    91    1
    75    90    87   am
    76    90    91    1
    77    50    48   ar
    78    47    48   ar
    79    47    46    1
    80    87    88    2
    81   100   101    2
    82    91    94    1
    83   111   110   ar
    84   111   109   ar
    85   110   108   ar
    86    94    95    1
    87    94    96    1
    88   109   107   ar
    89   108   107   ar
    90   131   128    1
    91   107   106    1
    92   130   129    2
    93    95    97    1
    94   106   103    1
    95   129   128    1
    96   115   114    2
    97   128   127    1
    98   127   118   am
    99    70    69    1
   100   118   117    1
   101   118   119    2
   102   117   116    1
   103   117   120    1
   104   112   104   am
   105   112   113    1
   106   103   104    1
   107   103   102    1
   108   114   116   am
   109   114   113    1
   110    58    56    1
   111    67    69   ar
   112    67    65   ar
   113   104   105    2
   114    69    68   ar
   115   120   121    1
   116    57    56    1
   117    56    53    1
   118    65    64   ar
   119    68    66   ar
   120    53    52    1
   121    53    54    1
   122   121   122   ar
   123   121   123   ar
   124   122   124   ar
   125    64    66   ar
   126    64    63    1
   127   123   125   ar
   128    54    55    2
   129   124   126   ar
   130    63    60    1
   131    60    59    1
   132    60    61    1
   133   125   126   ar
   134    61    62    2
