@<TRIPOS>MOLECULE
tmp/2qhwA00.pdb
 150 148 0 0 0
SMALL
GASTEIGER

@<TRIPOS>ATOM
      1  N         16.2210   10.8420    6.0770 N.3     2  LEU2       -0.1245
      2  CA        16.6170    9.4780    5.7730 C.3     2  LEU2        0.1561
      3  C         15.5310    8.7300    5.0180 C.2     2  LEU2        0.2260
      4  O         15.8180    7.7990    4.2660 O.2     2  LEU2       -0.2867
      5  CB        16.9810    8.7130    7.0410 C.3     2  LEU2        0.0270
      6  CG        18.4890    8.5520    7.2230 C.3     2  LEU2        0.0019
      7  CD1       19.1190    8.2410    5.8640 C.3     2  LEU2        0.0001
      8  CD2       19.0920    9.8190    7.7920 C.3     2  LEU2        0.0001
      9  N         16.2380    9.6300    1.3430 N.3     5  PHE5       -0.1241
     10  CA        17.5140    9.0690    0.9280 C.3     5  PHE5        0.1605
     11  C         17.3840    7.5610    0.7310 C.2     5  PHE5        0.2264
     12  O         17.8930    7.0150   -0.2450 O.2     5  PHE5       -0.2867
     13  CB        18.6040    9.3810    1.9650 C.3     5  PHE5        0.0534
     14  CG        20.0090    9.0730    1.4900 C.ar    5  PHE5       -0.0203
     15  CD1       20.3490    9.2060    0.1460 C.ar    5  PHE5       -0.0042
     16  CD2       20.9990    8.7000    2.3910 C.ar    5  PHE5       -0.0042
     17  CE1       21.6470    8.9720   -0.2940 C.ar    5  PHE5       -0.0003
     18  CE2       22.3030    8.4640    1.9600 C.ar    5  PHE5       -0.0003
     19  CZ        22.6270    8.6020    0.6130 C.ar    5  PHE5       -0.0000
     20  N         17.8740    5.4180   -2.8130 N.3     9  ILE9       -0.1245
     21  CA        18.8680    4.3580   -2.9320 C.3     9  ILE9        0.1561
     22  C         18.2570    3.0640   -3.4550 C.2     9  ILE9        0.2260
     23  O         18.8200    2.4060   -4.3340 O.2     9  ILE9       -0.2867
     24  CB        19.5400    4.0970   -1.5690 C.3     9  ILE9        0.0252
     25  CG1       20.3260    5.3410   -1.1460 C.3     9  ILE9        0.0019
     26  CG2       20.4630    2.9000   -1.6500 C.3     9  ILE9        0.0019
     27  CD1       20.9250    5.2460    0.2400 C.3     9  ILE9        0.0001
     28  N         18.7490    0.5060    1.7730 N.3    17  ALA17      -0.1231
     29  CA        19.7360    1.3230    2.4810 C.3    17  ALA17       0.1694
     30  C         20.2750    0.5660    3.6830 C.2    17  ALA17       0.2591
     31  O         21.4840    0.4460    3.8610 O.2    17  ALA17      -0.2718
     32  CB        19.0980    2.6240    2.9210 C.3    17  ALA17       0.0304
     33  N         19.3660    0.0780    4.5170 N.am   18  ILE18      -0.1980
     34  CA        19.7350   -0.7200    5.6750 C.3    18  ILE18       0.1595
     35  C         19.4380   -2.1390    5.1880 C.2    18  ILE18       0.2287
     36  O         18.3140   -2.4370    4.7880 O.2    18  ILE18      -0.2864
     37  CB        18.8430   -0.3900    6.9020 C.3    18  ILE18       0.0276
     38  CG1       19.0050    1.0840    7.2820 C.3    18  ILE18       0.0022
     39  CG2       19.2110   -1.2900    8.0800 C.3    18  ILE18       0.0022
     40  CD1       18.0990    1.5260    8.4150 C.3    18  ILE18       0.0001
     41  N         23.9120   -0.2630    2.8210 N.3    21  TYR21      -0.1227
     42  CA        24.7010    0.9660    2.9360 C.3    21  TYR21       0.1736
     43  C         24.7130    1.6650    4.3000 C.2    21  TYR21       0.2596
     44  O         25.0170    2.8590    4.3720 O.2    21  TYR21      -0.2718
     45  CB        24.2450    1.9860    1.8860 C.3    21  TYR21       0.0548
     46  CG        24.3770    1.5190    0.4580 C.ar   21  TYR21      -0.0200
     47  CD1       23.2900    0.9750   -0.2150 C.ar   21  TYR21      -0.0009
     48  CD2       25.5900    1.6260   -0.2210 C.ar   21  TYR21      -0.0009
     49  CE1       23.4000    0.5510   -1.5310 C.ar   21  TYR21       0.0417
     50  CE2       25.7150    1.2050   -1.5350 C.ar   21  TYR21       0.0417
     51  CZ        24.6160    0.6710   -2.1840 C.ar   21  TYR21       0.1957
     52  OH        24.7290    0.2660   -3.4890 O.3    21  TYR21      -0.2866
     53  N         24.3930    0.9530    5.3760 N.am   22  SER22      -0.1952
     54  CA        24.3890    1.5870    6.6940 C.3    22  SER22       0.1924
     55  C         25.5810    1.1970    7.5660 C.2    22  SER22       0.2314
     56  O         25.8350    1.8200    8.5970 O.2    22  SER22      -0.2863
     57  CB        23.0740    1.2930    7.4310 C.3    22  SER22       0.2116
     58  OG        22.7690   -0.0910    7.4390 O.3    22  SER22      -0.2180
     59  N         32.8270    4.9020    5.7620 N.3    27  TYR27      -0.1227
     60  CA        31.9470    6.0740    5.7480 C.3    27  TYR27       0.1736
     61  C         30.4480    5.8840    5.5540 C.2    27  TYR27       0.2596
     62  O         29.6900    6.8300    5.7350 O.2    27  TYR27      -0.2718
     63  CB        32.4550    7.1020    4.7270 C.3    27  TYR27       0.0548
     64  CG        33.7500    7.7240    5.1620 C.ar   27  TYR27      -0.0200
     65  CD1       34.9710    7.1390    4.8300 C.ar   27  TYR27      -0.0009
     66  CD2       33.7560    8.8390    5.9980 C.ar   27  TYR27      -0.0009
     67  CE1       36.1630    7.6430    5.3230 C.ar   27  TYR27       0.0417
     68  CE2       34.9400    9.3510    6.5000 C.ar   27  TYR27       0.0417
     69  CZ        36.1390    8.7470    6.1600 C.ar   27  TYR27       0.1957
     70  OH        37.3200    9.2410    6.6620 O.3    27  TYR27      -0.2866
     71  N         30.0030    4.6980    5.1670 N.am   28  CYS28      -0.1956
     72  CA        28.5990    4.4680    5.0380 C.3    28  CYS28       0.1843
     73  C         28.0050    4.0520    6.3630 C.2    28  CYS28       0.2626
     74  O         28.0110    2.8620    6.7090 O.2    28  CYS28      -0.2714
     75  CB        28.3250    3.4020    3.9780 C.3    28  CYS28       0.0997
     76  SG        29.1610    3.6980    2.3880 S.3    28  CYS28      -0.0797
     77  N         27.4760    5.0090    7.0690 N.am   29  GLY29      -0.1940
     78  CA        26.8680    4.7290    8.3560 C.3    29  GLY29       0.2014
     79  C         27.3050    5.7530    9.3900 C.2    29  GLY29       0.2638
     80  O         27.2240    6.9470    9.1250 O.2    29  GLY29      -0.2714
     81  N         27.7570    5.2930   10.5710 N.am   30  TRP30      -0.1973
     82  CA        28.2170    6.2160   11.6280 C.3    30  TRP30       0.1640
     83  C         29.4500    6.9850   11.1110 C.2    30  TRP30       0.2290
     84  O         29.5840    8.2170   11.2080 O.2    30  TRP30      -0.2864
     85  CB        28.6830    5.4980   12.9340 C.3    30  TRP30       0.0576
     86  CG        28.0900    5.8470   14.3160 C.ar   30  TRP30       0.0006
     87  CD1       26.8040    5.5800   14.6800 C.ar   30  TRP30       0.0946
     88  CD2       28.7160    6.4450   15.4720 C.ar   30  TRP30       0.0152
     89  NE1       26.5880    5.9590   15.9820 N.ar   30  TRP30      -0.2442
     90  CE2       27.7410    6.4920   16.4930 C.ar   30  TRP30       0.0810
     91  CE3       30.0020    6.9380   15.7420 C.ar   30  TRP30       0.0012
     92  CZ2       28.0070    7.0160   17.7690 C.ar   30  TRP30       0.0191
     93  CZ3       30.2680    7.4610   17.0170 C.ar   30  TRP30       0.0001
     94  CH2       29.2710    7.4910   18.0110 C.ar   30  TRP30       0.0015
     95  N         30.1260    7.5610   -0.0220 N.3    44  CYS44      -0.1235
     96  CA        29.6540    7.9160    1.3090 C.3    44  CYS44       0.1677
     97  C         30.5030    9.0280    1.9090 C.2    44  CYS44       0.2270
     98  O         29.9830    9.9110    2.5860 O.2    44  CYS44      -0.2867
     99  CB        29.6340    6.6800    2.2240 C.3    44  CYS44       0.0956
    100  SG        28.4340    5.4280    1.6630 S.3    44  CYS44      -0.0801
    101  N         29.4750   12.1500    0.3250 N.3    47  HIS47      -0.1226
    102  CA        28.1300   12.4370    0.8230 C.3    47  HIS47       0.1752
    103  C         28.2140   13.0730    2.2120 C.2    47  HIS47       0.2596
    104  O         27.5050   14.0390    2.4950 O.2    47  HIS47      -0.2718
    105  CB        27.2960   11.1510    0.8810 C.3    47  HIS47       0.0759
    106  CG        25.8670   11.3760    1.2680 C.ar   47  HIS47       0.0818
    107  ND1       25.3620   11.0150    2.5000 N.ar   47  HIS47      -0.2268
    108  CD2       24.8380   11.9350    0.5900 C.ar   47  HIS47       0.1154
    109  CE1       24.0830   11.3380    2.5600 C.ar   47  HIS47       0.1986
    110  NE2       23.7400   11.8990    1.4140 N.ar   47  HIS47      -0.2212
    111  N         29.0750   12.5300    3.0730 N.am   48  ASP48      -0.1974
    112  CA        29.2670   13.0750    4.4130 C.3    48  ASP48       0.1709
    113  C         29.7890   14.5090    4.3130 C.2    48  ASP48       0.2293
    114  O         29.3470   15.3970    5.0460 O.2    48  ASP48      -0.2864
    115  CB        30.2820   12.2380    5.1940 C.3    48  ASP48       0.1436
    116  CG        29.6790   10.9780    5.7820 C.2    48  ASP48       0.3671
    117  OD1       28.4930   10.6930    5.5090 O.co2  48  ASP48      -0.2456
    118  OD2       30.4000   10.2710    6.5190 O.co2  48  ASP48      -0.2456
    119  N         27.0950   16.9520    3.3180 N.3    51  TYR51      -0.1241
    120  CA        26.2830   17.3060    4.4690 C.3    51  TYR51       0.1605
    121  C         27.0940   18.2940    5.3010 C.2    51  TYR51       0.2264
    122  O         26.5540   19.2390    5.8620 O.2    51  TYR51      -0.2867
    123  CB        25.9720   16.0640    5.3220 C.3    51  TYR51       0.0534
    124  CG        24.7710   15.2490    4.8770 C.ar   51  TYR51      -0.0201
    125  CD1       24.0640   15.5710    3.7170 C.ar   51  TYR51      -0.0009
    126  CD2       24.3360   14.1570    5.6330 C.ar   51  TYR51      -0.0009
    127  CE1       22.9550   14.8280    3.3240 C.ar   51  TYR51       0.0417
    128  CE2       23.2280   13.4070    5.2490 C.ar   51  TYR51       0.0417
    129  CZ        22.5440   13.7490    4.0960 C.ar   51  TYR51       0.1957
    130  OH        21.4470   13.0160    3.7100 O.3    51  TYR51      -0.2866
    131  N         19.1100   14.6320    8.2860 N.3    60  LYS60      -0.1245
    132  CA        18.4920   13.3770    8.7100 C.3    60  LYS60       0.1561
    133  C         16.9810   13.4670    8.9190 C.2    60  LYS60       0.2260
    134  O         16.2640   12.5050    8.6570 O.2    60  LYS60      -0.2867
    135  CB        19.1210   12.8720   10.0110 C.3    60  LYS60       0.0271
    136  CG        20.5490   12.3770    9.8750 C.3    60  LYS60       0.0035
    137  CD        20.9530   11.6430   11.1520 C.3    60  LYS60       0.0206
    138  CE        22.4140   11.1990   11.1520 C.3    60  LYS60       0.1093
    139  NZ        23.3310   12.3420   11.4160 N.3    60  LYS60      -0.1314
    140  N         26.3140    5.6370   -6.1330 N.3    96  PHE96      -0.1241
    141  CA        26.1240    4.2360   -5.7520 C.3    96  PHE96       0.1605
    142  C         25.7930    3.4020   -6.9920 C.2    96  PHE96       0.2264
    143  O         26.3450    2.3250   -7.1990 O.2    96  PHE96      -0.2867
    144  CB        24.9810    4.0700   -4.7390 C.3    96  PHE96       0.0534
    145  CG        25.3010    4.5660   -3.3570 C.ar   96  PHE96      -0.0203
    146  CD1       26.5850    4.4510   -2.8330 C.ar   96  PHE96      -0.0042
    147  CD2       24.2970    5.1040   -2.5570 C.ar   96  PHE96      -0.0042
    148  CE1       26.8610    4.8620   -1.5340 C.ar   96  PHE96      -0.0003
    149  CE2       24.5620    5.5180   -1.2530 C.ar   96  PHE96      -0.0003
    150  CZ        25.8430    5.3980   -0.7410 C.ar   96  PHE96      -0.0000
@<TRIPOS>BOND
     1   143   142    2
     2   142   141    1
     3   140   141    1
     4   141   144    1
     5   144   145    1
     6    23    22    2
     7    52    51    1
     8    22    21    1
     9   145   146   ar
    10   145   147   ar
    11    21    20    1
    12    21    24    1
    13   146   148   ar
    14   147   149   ar
    15    51    50   ar
    16    51    49   ar
    17    26    24    1
    18    24    25    1
    19    50    48   ar
    20   148   150   ar
    21    49    47   ar
    22   149   150   ar
    23    25    27    1
    24    17    15   ar
    25    17    19   ar
    26    12    11    2
    27    48    46   ar
    28    47    46   ar
    29    95    96    1
    30    15    14   ar
    31   101   102    1
    32    46    45    1
    33   108   106   ar
    34   108   110   ar
    35    19    18   ar
    36    11    10    1
    37   102   105    1
    38   102   103    1
    39   105   106    1
    40    10     9    1
    41    10    13    1
    42   106   107   ar
    43    96    97    1
    44    96    99    1
    45   110   109   ar
    46    14    13    1
    47    14    16   ar
    48   100    99    1
    49   100    76    1
    50    28    29    1
    51    45    42    1
    52    97    98    2
    53    18    16   ar
    54   103   104    2
    55   103   111   am
    56    76    75    1
    57    29    32    1
    58    29    30    1
    59   107   109   ar
    60    41    42    1
    61    42    43    1
    62   111   112    1
    63   119   120    1
    64   127   125   ar
    65   127   129   ar
    66    30    31    2
    67    30    33   am
    68   130   129    1
    69   125   124   ar
    70    75    72    1
    71   129   128   ar
    72     4     3    2
    73    43    44    2
    74    43    53   am
    75   113   112    1
    76   113   114    2
    77   112   115    1
    78   120   121    1
    79   120   123    1
    80    33    34    1
    81    63    64    1
    82    63    60    1
    83    36    35    2
    84    65    64   ar
    85    65    67   ar
    86   124   123    1
    87   124   126   ar
    88     3     2    1
    89    72    71    1
    90    72    73    1
    91    64    66   ar
    92    71    61   am
    93    35    34    1
    94   115   116    1
    95   128   126   ar
    96   121   122    2
    97    67    69   ar
    98    53    54    1
    99   117   116   ar
   100    61    62    2
   101    61    60    1
   102    34    37    1
   103    60    59    1
   104     2     1    1
   105     2     5    1
   106   116   118   ar
   107     7     6    1
   108    66    68   ar
   109    69    68   ar
   110    69    70    1
   111    73    74    2
   112    73    77   am
   113    54    57    1
   114    54    55    1
   115    37    38    1
   116    37    39    1
   117     5     6    1
   118    77    78    1
   119     6     8    1
   120    38    40    1
   121    57    58    1
   122    55    56    2
   123   131   132    1
   124    78    79    1
   125   134   133    2
   126   132   133    1
   127   132   135    1
   128    80    79    2
   129    79    81   am
   130   136   135    1
   131   136   137    1
   132    81    82    1
   133    83    84    2
   134    83    82    1
   135   137   138    1
   136   138   139    1
   137    82    85    1
   138    85    86    1
   139    86    87   ar
   140    86    88   ar
   141    87    89   ar
   142    88    91   ar
   143    88    90   ar
   144    91    93   ar
   145    89    90   ar
   146    90    92   ar
   147    93    94   ar
   148    92    94   ar
