@<TRIPOS>MOLECULE
tmp/2qhxB01.pdb
 151 143 0 0 0
SMALL
GASTEIGER

@<TRIPOS>ATOM
      1  N         31.1560   29.0340   84.9270 N.3    13  ARG13      -0.1245
      2  CA        30.9050   30.2820   84.2210 C.3    13  ARG13       0.1563
      3  C         29.6830   31.0220   84.7920 C.2    13  ARG13       0.2260
      4  O         29.5900   31.1830   86.0180 O.2    13  ARG13      -0.2867
      5  CB        30.8050   30.0110   82.7180 C.3    13  ARG13       0.0307
      6  CG        32.0820   29.3950   82.1680 C.3    13  ARG13       0.0489
      7  CD        31.8940   28.7340   80.8140 C.3    13  ARG13       0.2205
      8  NE        31.3110   29.6600   79.8550 N.pl3  13  ARG13      -0.0865
      9  CZ        31.9860   30.6170   79.2260 C.cat  13  ARG13       0.5346
     10  NH1       33.2900   30.7680   79.4440 N.pl3  13  ARG13       0.1354
     11  NH2       31.3560   31.4240   78.3730 N.pl3  13  ARG13       0.1354
     12  N         22.4760   25.9460   78.3270 N.3   101  SER101     -0.1217
     13  CA        22.3850   26.3300   76.9240 C.3   101  SER101      0.1889
     14  C         23.5250   25.7530   76.1180 C.2   101  SER101      0.2288
     15  O         24.6820   25.9390   76.4670 O.2   101  SER101     -0.2866
     16  CB        22.3980   27.8540   76.8220 C.3   101  SER101      0.2089
     17  OG        22.5580   28.2980   75.4910 O.3   101  SER101     -0.2183
     18  N         25.5130   25.8140   72.3930 N.3   103  PHE103     -0.1241
     19  CA        25.8610   26.9330   71.5350 C.3   103  PHE103      0.1605
     20  C         26.9650   26.5360   70.5610 C.2   103  PHE103      0.2264
     21  O         28.1430   26.4490   70.9360 O.2   103  PHE103     -0.2867
     22  CB        26.2910   28.1070   72.4200 C.3   103  PHE103      0.0534
     23  CG        26.9020   29.2680   71.6840 C.ar  103  PHE103     -0.0203
     24  CD1       26.1070   30.1540   70.9670 C.ar  103  PHE103     -0.0042
     25  CD2       28.2740   29.5070   71.7560 C.ar  103  PHE103     -0.0042
     26  CE1       26.6770   31.2540   70.3020 C.ar  103  PHE103     -0.0003
     27  CE2       28.8540   30.6110   71.0980 C.ar  103  PHE103     -0.0003
     28  CZ        28.0500   31.4810   70.3690 C.ar  103  PHE103     -0.0000
     29  N         27.6970   26.2900   65.8180 N.3   105  PRO105     -0.2116
     30  CA        27.1890   26.5660   64.4750 C.3   105  PRO105      0.1372
     31  C         26.2380   25.5030   63.9280 C.2   105  PRO105      0.2244
     32  O         26.4680   24.3020   64.1040 O.2   105  PRO105     -0.2868
     33  CB        28.4640   26.6010   63.6220 C.3   105  PRO105      0.0268
     34  CG        29.5540   26.8830   64.5610 C.3   105  PRO105      0.0207
     35  CD        29.1680   26.1780   65.8150 C.3   105  PRO105      0.0892
     36  N         19.9000   36.4290   75.0280 N.3   158  ASP158     -0.1239
     37  CA        21.0870   36.9090   74.3330 C.3   158  ASP158      0.1674
     38  C         20.8210   38.3140   73.8230 C.2   158  ASP158      0.2266
     39  O         19.8620   38.5330   73.0870 O.2   158  ASP158     -0.2867
     40  CB        21.4260   35.9660   73.1680 C.3   158  ASP158      0.1410
     41  CG        22.7950   36.2470   72.5380 C.2   158  ASP158      0.3668
     42  OD1       23.2630   37.4050   72.5560 O.co2 158  ASP158     -0.2456
     43  OD2       23.3970   35.2970   71.9980 O.co2 158  ASP158     -0.2456
     44  N         24.5200   36.0630   64.9740 N.3   165  LEU165     -0.1231
     45  CA        25.8420   35.5350   64.7560 C.3   165  LEU165      0.1693
     46  C         25.7970   34.6020   63.5460 C.2   165  LEU165      0.2591
     47  O         24.9990   33.6630   63.5000 O.2   165  LEU165     -0.2718
     48  CB        26.3080   34.8080   66.0140 C.3   165  LEU165      0.0284
     49  CG        27.7930   34.4730   66.1660 C.3   165  LEU165      0.0019
     50  CD1       28.6710   35.7290   66.1320 C.3   165  LEU165      0.0001
     51  CD2       27.9920   33.6840   67.4590 C.3   165  LEU165      0.0001
     52  N         26.6420   34.8860   62.5600 N.am  166  LEU166     -0.1980
     53  CA        26.6420   34.1570   61.2950 C.3   166  LEU166      0.1596
     54  C         26.8530   32.6590   61.5030 C.2   166  LEU166      0.2287
     55  O         27.8280   32.2400   62.1220 O.2   166  LEU166     -0.2864
     56  CB        27.7110   34.7260   60.3540 C.3   166  LEU166      0.0297
     57  CG        27.6940   34.2410   58.9060 C.3   166  LEU166      0.0022
     58  CD1       26.5480   34.8940   58.1330 C.3   166  LEU166      0.0001
     59  CD2       29.0330   34.5340   58.2300 C.3   166  LEU166      0.0001
     60  N         24.7420   30.5480   63.1070 N.3   168  TYR168     -0.1241
     61  CA        24.2010   30.0470   64.3690 C.3   168  TYR168      0.1605
     62  C         22.6660   30.0000   64.4100 C.2   168  TYR168      0.2264
     63  O         22.0540   30.2230   65.4720 O.2   168  TYR168     -0.2867
     64  CB        24.7420   30.8930   65.5290 C.3   168  TYR168      0.0534
     65  CG        26.1430   30.5190   65.9530 C.ar  168  TYR168     -0.0201
     66  CD1       27.2490   30.9080   65.1970 C.ar  168  TYR168     -0.0009
     67  CD2       26.3620   29.7720   67.1100 C.ar  168  TYR168     -0.0009
     68  CE1       28.5350   30.5600   65.5770 C.ar  168  TYR168      0.0417
     69  CE2       27.6450   29.4260   67.5070 C.ar  168  TYR168      0.0417
     70  CZ        28.7270   29.8190   66.7390 C.ar  168  TYR168      0.1957
     71  OH        30.0020   29.4640   67.1320 O.3   168  TYR168     -0.2866
     72  N         20.5170   28.0850   67.1180 N.3   171  TYR171     -0.1241
     73  CA        20.7320   28.7510   68.4060 C.3   171  TYR171      0.1605
     74  C         19.9220   30.0490   68.4940 C.2   171  TYR171      0.2264
     75  O         19.1950   30.2680   69.4630 O.2   171  TYR171     -0.2867
     76  CB        22.2250   29.0240   68.6700 C.3   171  TYR171      0.0534
     77  CG        22.4630   30.0560   69.7600 C.ar  171  TYR171     -0.0201
     78  CD1       22.4730   29.6900   71.1040 C.ar  171  TYR171     -0.0009
     79  CD2       22.6580   31.4030   69.4420 C.ar  171  TYR171     -0.0009
     80  CE1       22.6800   30.6310   72.1020 C.ar  171  TYR171      0.0417
     81  CE2       22.8590   32.3570   70.4360 C.ar  171  TYR171      0.0417
     82  CZ        22.8690   31.9670   71.7640 C.ar  171  TYR171      0.1957
     83  OH        23.0630   32.9130   72.7530 O.3   171  TYR171     -0.2866
     84  N         16.8120   31.1390   71.0610 N.3   175  LYS175     -0.1245
     85  CA        16.7540   32.3190   71.9290 C.3   175  LYS175      0.1561
     86  C         15.5160   33.1670   71.6270 C.2   175  LYS175      0.2260
     87  O         14.8850   33.7130   72.5430 O.2   175  LYS175     -0.2867
     88  CB        18.0320   33.1620   71.8450 C.3   175  LYS175      0.0271
     89  CG        19.2550   32.5170   72.4810 C.3   175  LYS175      0.0035
     90  CD        19.0530   32.2640   73.9630 C.3   175  LYS175      0.0206
     91  CE        20.2800   31.5970   74.5560 C.3   175  LYS175      0.1093
     92  NZ        20.0780   31.0980   75.9570 N.3   175  LYS175     -0.1314
     93  N         25.9010   40.1000   76.3230 N.3   202  GLY202     -0.1210
     94  CA        26.4450   40.3050   74.9870 C.3   202  GLY202      0.1956
     95  C         27.6590   39.4150   74.8510 C.2   202  GLY202      0.2612
     96  O         27.5810   38.3400   74.2590 O.2   202  GLY202     -0.2717
     97  N         28.7780   39.8640   75.4160 N.am  203  LEU203     -0.1965
     98  CA        30.0030   39.0620   75.4880 C.3   203  LEU203      0.1728
     99  C         30.4210   38.9300   76.9380 C.2   203  LEU203      0.2616
    100  O         30.6590   39.9340   77.5990 O.2   203  LEU203     -0.2715
    101  CB        31.1330   39.7130   74.6800 C.3   203  LEU203      0.0311
    102  CG        30.9150   39.9680   73.1830 C.3   203  LEU203      0.0022
    103  CD1       32.1270   40.6340   72.5910 C.3   203  LEU203      0.0001
    104  CD2       30.5990   38.6690   72.4350 C.3   203  LEU203      0.0001
    105  N         30.4930   37.6950   77.4300 N.am  204  SER204     -0.1950
    106  CA        30.8380   37.4190   78.8320 C.3   204  SER204      0.1924
    107  C         31.8100   36.2640   78.9540 C.2   204  SER204      0.2314
    108  O         31.6650   35.2440   78.2670 O.2   204  SER204     -0.2863
    109  CB        29.5970   37.1030   79.6600 C.3   204  SER204      0.2116
    110  OG        28.6990   38.1840   79.6160 O.3   204  SER204     -0.2180
    111  N         34.7420   35.4900   77.9230 N.3   206  LEU206     -0.1231
    112  CA        35.2070   35.0180   76.6260 C.3   206  LEU206      0.1693
    113  C         36.4430   34.1400   76.7760 C.2   206  LEU206      0.2591
    114  O         37.4130   34.5090   77.4600 O.2   206  LEU206     -0.2718
    115  CB        35.5600   36.2290   75.7700 C.3   206  LEU206      0.0284
    116  CG        35.1230   36.3280   74.3090 C.3   206  LEU206      0.0019
    117  CD1       33.6170   36.2640   74.1810 C.3   206  LEU206      0.0001
    118  CD2       35.6190   37.6520   73.7480 C.3   206  LEU206      0.0001
    119  N         36.4150   32.9700   76.1500 N.am  207  VAL207     -0.1980
    120  CA        37.5680   32.0640   76.2450 C.3   207  VAL207      0.1595
    121  C         38.5290   32.2930   75.0660 C.2   207  VAL207      0.2287
    122  O         38.0800   32.5400   73.9500 O.2   207  VAL207     -0.2864
    123  CB        37.1490   30.5590   76.5630 C.3   207  VAL207      0.0276
    124  CG1       35.6640   30.2480   76.3100 C.3   207  VAL207      0.0022
    125  CG2       38.1520   29.4980   76.0860 C.3   207  VAL207      0.0022
    126  N         40.5670   30.7360   72.5730 N.3   209  ASP209     -0.1225
    127  CA        41.0150   29.5790   71.7960 C.3   209  ASP209      0.1805
    128  C         41.2070   30.0030   70.3530 C.2   209  ASP209      0.2597
    129  O         40.7220   29.3620   69.4160 O.2   209  ASP209     -0.2718
    130  CB        40.0370   28.4060   71.9110 C.3   209  ASP209      0.1424
    131  CG        38.5890   28.8380   71.7680 C.2   209  ASP209      0.3668
    132  OD1       38.0480   29.4620   72.7170 O.co2 209  ASP209     -0.2456
    133  OD2       37.9930   28.5460   70.7090 O.co2 209  ASP209     -0.2456
    134  N         41.9360   31.0990   70.1980 N.am  210  MET210     -0.1979
    135  CA        42.1510   31.7320   68.9090 C.3   210  MET210      0.1605
    136  C         43.3490   32.6630   69.0620 C.2   210  MET210      0.2287
    137  O         43.7040   33.0260   70.1870 O.2   210  MET210     -0.2864
    138  CB        40.9140   32.5430   68.5210 C.3   210  MET210      0.0413
    139  CG        40.6520   33.7290   69.4460 C.3   210  MET210      0.0598
    140  SD        38.9240   34.1990   69.5170 S.3   210  MET210     -0.1393
    141  CE        38.2620   32.9220   70.5910 C.3   210  MET210      0.0692
    142  N         37.7380   40.8750   69.1750 N.3   218  HIS218     -0.1241
    143  CA        36.3210   40.7360   69.4640 C.3   218  HIS218      0.1621
    144  C         35.8920   41.5890   70.6580 C.2   218  HIS218      0.2264
    145  O         34.9140   42.3470   70.5660 O.2   218  HIS218     -0.2867
    146  CB        35.9280   39.2650   69.6660 C.3   218  HIS218      0.0745
    147  CG        36.1280   38.4050   68.4510 C.ar  218  HIS218      0.0817
    148  ND1       36.2760   37.0360   68.5270 N.ar  218  HIS218     -0.2268
    149  CD2       36.2170   38.7200   67.1350 C.ar  218  HIS218      0.1154
    150  CE1       36.4380   36.5440   67.3100 C.ar  218  HIS218      0.1986
    151  NE2       36.4080   37.5450   66.4480 N.ar  218  HIS218     -0.2212
@<TRIPOS>BOND
     1    58    57    1
     2    59    57    1
     3    57    56    1
     4    56    53    1
     5    53    54    1
     6    53    52    1
     7    54    55    2
     8    52    46   am
     9    60    61    1
    10    47    46    2
    11    46    45    1
    12    33    30    1
    13    33    34    1
    14    31    32    2
    15    31    30    1
    16    61    62    1
    17    61    64    1
    18    62    63    2
    19    30    29    1
    20    34    35    1
    21    45    44    1
    22    45    48    1
    23    66    68   ar
    24    66    65   ar
    25    64    65    1
    26    68    70   ar
    27    35    29    1
    28    65    67   ar
    29    48    49    1
    30    50    49    1
    31    49    51    1
    32   151   149   ar
    33   151   150   ar
    34    70    71    1
    35    70    69   ar
    36    67    69   ar
    37    72    73    1
    38   149   147   ar
    39   150   148   ar
    40    73    74    1
    41    73    76    1
    42   147   148   ar
    43   147   146    1
    44    74    75    2
    45   138   135    1
    46   138   139    1
    47    76    77    1
    48   135   136    1
    49   135   134    1
    50   136   137    2
    51   142   143    1
    52   129   128    2
    53    79    77   ar
    54    79    81   ar
    55   139   140    1
    56   143   146    1
    57   143   144    1
    58   140   141    1
    59    77    78   ar
    60   134   128   am
    61    26    28   ar
    62    26    24   ar
    63   128   127    1
    64    28    27   ar
    65    81    82   ar
    66    20    21    2
    67    20    19    1
    68   145   144    2
    69   133   131   ar
    70    24    23   ar
    71    84    85    1
    72    27    25   ar
    73    78    80   ar
    74    19    18    1
    75    19    22    1
    76    86    85    1
    77    86    87    2
    78    23    25   ar
    79    23    22    1
    80    82    80   ar
    81    82    83    1
    82   131   130    1
    83   131   132   ar
    84   127   130    1
    85   127   126    1
    86    88    85    1
    87    88    89    1
    88    43    41   ar
    89   104   102    1
    90    89    90    1
    91    41    42   ar
    92    41    40    1
    93   103   102    1
    94    39    38    2
    95    40    37    1
    96   102   101    1
    97   118   116    1
    98    38    37    1
    99   122   121    2
   100    90    91    1
   101   117   116    1
   102    96    95    2
   103   116   115    1
   104    37    36    1
   105    91    92    1
   106   101    98    1
   107    95    94    1
   108    95    97   am
   109    94    93    1
   110   121   120    1
   111    97    98    1
   112    98    99    1
   113    17    16    1
   114   115   112    1
   115   125   123    1
   116    14    15    2
   117    14    13    1
   118   119   120    1
   119   119   113   am
   120   120   123    1
   121   124   123    1
   122   112   113    1
   123   112   111    1
   124   113   114    2
   125    16    13    1
   126    13    12    1
   127    99   105   am
   128    99   100    2
   129   105   106    1
   130   108   107    2
   131    11     9    1
   132   106   107    1
   133   106   109    1
   134     9    10    1
   135     9     8    2
   136   110   109    1
   137     8     7    1
   138     7     6    1
   139     6     5    1
   140     5     2    1
   141     2     3    1
   142     2     1    1
   143     3     4    2
