@<TRIPOS>MOLECULE
tmp/2qhxD01.pdb
 139 134 0 0 0
SMALL
GASTEIGER

@<TRIPOS>ATOM
      1  N          6.3430   62.5600   94.1860 N.3    13  ARG13      -0.1245
      2  CA         6.0910   61.3420   93.4250 C.3    13  ARG13       0.1563
      3  C          7.3840   60.5790   93.0910 C.2    13  ARG13       0.2260
      4  O          8.1880   60.3350   93.9930 O.2    13  ARG13      -0.2867
      5  CB         5.2440   61.6710   92.2020 C.3    13  ARG13       0.0307
      6  CG         3.8960   62.2760   92.5910 C.3    13  ARG13       0.0489
      7  CD         3.2260   63.0050   91.4350 C.3    13  ARG13       0.2205
      8  NE         3.0770   62.1440   90.2650 N.pl3  13  ARG13      -0.0865
      9  CZ         2.1700   61.1800   90.1590 C.cat  13  ARG13       0.5346
     10  NH1        1.3140   60.9530   91.1530 N.pl3  13  ARG13       0.1354
     11  NH2        2.1230   60.4450   89.0570 N.pl3  13  ARG13       0.1354
     12  N          9.1750   65.9750   83.7780 N.3   100  SER100     -0.1217
     13  CA         8.3910   65.6710   82.5900 C.3   100  SER100      0.1889
     14  C          7.0040   66.2540   82.6930 C.2   100  SER100      0.2288
     15  O          6.2920   65.9810   83.6530 O.2   100  SER100     -0.2866
     16  CB         8.2930   64.1480   82.4220 C.3   100  SER100      0.2089
     17  OG         7.3150   63.7600   81.4640 O.3   100  SER100     -0.2183
     18  N          3.1560   66.2990   80.9900 N.3   102  PHE102     -0.1227
     19  CA         2.3400   65.2100   80.4700 C.3   102  PHE102      0.1736
     20  C          0.8810   65.6540   80.4000 C.2   102  PHE102      0.2595
     21  O          0.2120   65.7700   81.4310 O.2   102  PHE102     -0.2718
     22  CB         2.5090   64.0060   81.3920 C.3   102  PHE102      0.0547
     23  CG         1.5630   62.8710   81.1350 C.ar  102  PHE102     -0.0202
     24  CD1        1.7460   62.0190   80.0430 C.ar  102  PHE102     -0.0042
     25  CD2        0.5290   62.6070   82.0330 C.ar  102  PHE102     -0.0042
     26  CE1        0.8870   60.9450   79.8170 C.ar  102  PHE102     -0.0003
     27  CE2       -0.3390   61.5340   81.8250 C.ar  102  PHE102     -0.0003
     28  CZ        -0.1600   60.7000   80.7080 C.ar  102  PHE102     -0.0000
     29  N          0.4100   65.9360   79.1860 N.am  103  TYR103     -0.1963
     30  CA        -0.9920   66.2970   78.9440 C.3   103  TYR103      0.1756
     31  C         -1.3310   66.1360   77.4620 C.2   103  TYR103      0.2461
     32  O         -0.4260   66.0670   76.6320 O.2   103  TYR103     -0.2730
     33  CB        -1.3080   67.7230   79.4320 C.3   103  TYR103      0.0574
     34  CG        -0.3040   68.7800   79.0330 C.ar  103  TYR103     -0.0198
     35  CD1       -0.3440   69.3720   77.7640 C.ar  103  TYR103     -0.0009
     36  CD2        0.6720   69.2070   79.9330 C.ar  103  TYR103     -0.0009
     37  CE1        0.5740   70.3580   77.4000 C.ar  103  TYR103      0.0417
     38  CE2        1.5930   70.1920   79.5860 C.ar  103  TYR103      0.0417
     39  CZ         1.5400   70.7630   78.3200 C.ar  103  TYR103      0.1957
     40  OH         2.4580   71.7300   77.9750 O.3   103  TYR103     -0.2866
     41  N         -2.6370   66.0620   77.1270 N.am  104  PRO104     -0.2727
     42  CA        -3.0630   65.8550   75.7380 C.3   104  PRO104      0.1402
     43  C         -2.6100   66.9420   74.7620 C.2   104  PRO104      0.2269
     44  O         -2.6260   68.1320   75.0950 O.2   104  PRO104     -0.2865
     45  CB        -4.5880   65.8560   75.8410 C.3   104  PRO104      0.0296
     46  CG        -4.8740   65.5070   77.2560 C.3   104  PRO104      0.0237
     47  CD        -3.7940   66.1500   78.0380 C.3   104  PRO104      0.0939
     48  N          9.0220   55.6960   79.1960 N.3   159  ASP159     -0.1239
     49  CA         7.6490   55.2150   79.3670 C.3   159  ASP159      0.1674
     50  C          7.5270   53.8510   78.7250 C.2   159  ASP159      0.2266
     51  O          7.7780   53.7040   77.5330 O.2   159  ASP159     -0.2867
     52  CB         6.6810   56.2060   78.7140 C.3   159  ASP159      0.1410
     53  CG         5.2070   55.8950   78.9930 C.2   159  ASP159      0.3668
     54  OD1        4.8320   54.7320   79.2580 O.co2 159  ASP159     -0.2456
     55  OD2        4.4070   56.8470   78.9160 O.co2 159  ASP159     -0.2456
     56  N         -0.7790   56.3440   74.1160 N.3   166  LEU166     -0.1245
     57  CA        -1.9550   56.8720   74.7730 C.3   166  LEU166      0.1561
     58  C         -2.6380   57.8490   73.8180 C.2   166  LEU166      0.2260
     59  O         -2.0280   58.8100   73.3370 O.2   166  LEU166     -0.2867
     60  CB        -1.5490   57.5570   76.0810 C.3   166  LEU166      0.0270
     61  CG        -2.6160   57.8720   77.1360 C.3   166  LEU166      0.0019
     62  CD1       -3.3530   56.6270   77.6020 C.3   166  LEU166      0.0001
     63  CD2       -1.9680   58.5760   78.3110 C.3   166  LEU166      0.0001
     64  N         -2.0000   61.9540   72.9840 N.3   169  TYR169     -0.1241
     65  CA        -0.7920   62.4010   73.6640 C.3   169  TYR169      0.1605
     66  C          0.4310   62.4380   72.7400 C.2   169  TYR169      0.2264
     67  O          1.5650   62.1920   73.1870 O.2   169  TYR169     -0.2867
     68  CB        -0.5160   61.5030   74.8780 C.3   169  TYR169      0.0534
     69  CG        -1.3630   61.8420   76.0710 C.ar  169  TYR169     -0.0201
     70  CD1       -2.7110   61.4750   76.1250 C.ar  169  TYR169     -0.0009
     71  CD2       -0.8260   62.5450   77.1470 C.ar  169  TYR169     -0.0009
     72  CE1       -3.4980   61.7980   77.2230 C.ar  169  TYR169      0.0417
     73  CE2       -1.6030   62.8680   78.2530 C.ar  169  TYR169      0.0417
     74  CZ        -2.9370   62.4940   78.2870 C.ar  169  TYR169      0.1957
     75  OH        -3.7130   62.8160   79.3810 O.3   169  TYR169     -0.2866
     76  N          3.8680   64.3090   73.6770 N.3   172  TYR172     -0.1241
     77  CA         4.4680   63.5950   74.7940 C.3   172  TYR172      0.1605
     78  C          5.1310   62.3010   74.3070 C.2   172  TYR172      0.2264
     79  O          6.2890   62.0390   74.6320 O.2   172  TYR172     -0.2867
     80  CB         3.4280   63.2870   75.8880 C.3   172  TYR172      0.0534
     81  CG         3.8780   62.2140   76.8650 C.ar  172  TYR172     -0.0201
     82  CD1        4.7220   62.5250   77.9340 C.ar  172  TYR172     -0.0009
     83  CD2        3.4890   60.8820   76.6960 C.ar  172  TYR172     -0.0009
     84  CE1        5.1550   61.5460   78.8180 C.ar  172  TYR172      0.0417
     85  CE2        3.9130   59.8990   77.5700 C.ar  172  TYR172      0.0417
     86  CZ         4.7450   60.2340   78.6320 C.ar  172  TYR172      0.1957
     87  OH         5.1670   59.2480   79.4990 O.3   172  TYR172     -0.2866
     88  N          9.1290   61.1220   74.3420 N.3   176  LYS176     -0.1245
     89  CA         9.6810   59.9280   74.9780 C.3   176  LYS176      0.1561
     90  C         10.4650   59.1100   73.9580 C.2   176  LYS176      0.2260
     91  O         11.5110   58.5400   74.2850 O.2   176  LYS176     -0.2867
     92  CB         8.6000   59.0740   75.6530 C.3   176  LYS176      0.0271
     93  CG         8.0250   59.6780   76.9230 C.3   176  LYS176      0.0035
     94  CD         9.0810   59.8810   77.9980 C.3   176  LYS176      0.0206
     95  CE         8.4810   60.5570   79.2170 C.3   176  LYS176      0.1093
     96  NZ         9.4780   61.0110   80.2310 N.3   176  LYS176     -0.1314
     97  N          5.0620   51.8580   83.7690 N.3   203  GLY203     -0.1210
     98  CA         3.7990   51.6990   83.0450 C.3   203  GLY203      0.1956
     99  C          2.7720   52.5910   83.7090 C.2   203  GLY203      0.2612
    100  O          2.4740   53.6820   83.2200 O.2   203  GLY203     -0.2717
    101  N          2.2400   52.1290   84.8380 N.am  204  LEU204     -0.1965
    102  CA         1.3260   52.9150   85.6620 C.3   204  LEU204      0.1728
    103  C          1.8890   52.9780   87.0690 C.2   204  LEU204      0.2616
    104  O          2.0940   51.9450   87.7050 O.2   204  LEU204     -0.2715
    105  CB        -0.0710   52.2870   85.6930 C.3   204  LEU204      0.0311
    106  CG        -0.8330   52.0800   84.3830 C.3   204  LEU204      0.0022
    107  CD1       -2.1560   51.3840   84.6540 C.3   204  LEU204      0.0001
    108  CD2       -1.0590   53.3880   83.6380 C.3   204  LEU204      0.0001
    109  N          2.1530   54.1890   87.5490 N.am  205  SER205     -0.1950
    110  CA         2.7360   54.3860   88.8740 C.3   205  SER205      0.1924
    111  C          2.0470   55.5120   89.6230 C.2   205  SER205      0.2314
    112  O          1.7320   56.5570   89.0380 O.2   205  SER205     -0.2863
    113  CB         4.2240   54.7060   88.7610 C.3   205  SER205      0.2116
    114  OG         4.9160   53.6570   88.1080 O.3   205  SER205     -0.2180
    115  N         -0.8800   56.2940   90.6710 N.3   207  LEU207     -0.1231
    116  CA        -2.0410   56.8110   89.9620 C.3   207  LEU207      0.1693
    117  C         -2.8930   57.6860   90.8890 C.2   207  LEU207      0.2591
    118  O         -3.2040   57.2950   92.0200 O.2   207  LEU207     -0.2718
    119  CB        -2.8540   55.6260   89.4450 C.3   207  LEU207      0.0284
    120  CG        -3.3360   55.5410   88.0040 C.3   207  LEU207      0.0019
    121  CD1       -2.1990   55.6550   86.9990 C.3   207  LEU207      0.0001
    122  CD2       -4.0670   54.2100   87.8270 C.3   207  LEU207      0.0001
    123  N         -3.2460   58.8770   90.4140 N.am  208  VAL208     -0.1980
    124  CA        -4.0600   59.8170   91.1930 C.3   208  VAL208      0.1595
    125  C         -5.5340   59.4610   91.0050 C.2   208  VAL208      0.2287
    126  O         -5.9960   59.2980   89.8690 O.2   208  VAL208     -0.2864
    127  CB        -3.8460   61.2880   90.7330 C.3   208  VAL208      0.0276
    128  CG1       -4.4870   62.2810   91.7020 C.3   208  VAL208      0.0022
    129  CG2       -2.3690   61.6040   90.4700 C.3   208  VAL208      0.0022
    130  N         -8.6890   51.2480   85.3340 N.3   211  HIS211     -0.1241
    131  CA        -7.3800   51.3800   84.6930 C.3   211  HIS211      0.1621
    132  C         -6.3230   50.4700   85.3200 C.2   211  HIS211      0.2264
    133  O         -5.6850   49.6760   84.6170 O.2   211  HIS211     -0.2867
    134  CB        -6.9130   52.8420   84.6760 C.3   211  HIS211      0.0745
    135  CG        -7.8000   53.7500   83.8780 C.ar  211  HIS211      0.0817
    136  ND1       -7.8580   55.1120   84.0910 N.ar  211  HIS211     -0.2268
    137  CD2       -8.6860   53.4880   82.8840 C.ar  211  HIS211      0.1154
    138  CE1       -8.7250   55.6530   83.2510 C.ar  211  HIS211      0.1986
    139  NE2       -9.2430   54.6890   82.5080 N.ar  211  HIS211     -0.2212
@<TRIPOS>BOND
     1    66    67    2
     2    66    65    1
     3    64    65    1
     4    59    58    2
     5    65    68    1
     6    76    77    1
     7    58    57    1
     8    90    91    2
     9    90    89    1
    10    56    57    1
    11    78    79    2
    12    78    77    1
    13    88    89    1
    14    43    44    2
    15    43    42    1
    16    57    60    1
    17    77    80    1
    18    68    69    1
    19    89    92    1
    20    92    93    1
    21    42    45    1
    22    42    41    1
    23    45    46    1
    24    80    81    1
    25    69    70   ar
    26    69    71   ar
    27    60    61    1
    28    70    72   ar
    29    32    31    2
    30    83    81   ar
    31    83    85   ar
    32    81    82   ar
    33    93    94    1
    34    41    31   am
    35    41    47    1
    36    61    62    1
    37    61    63    1
    38    71    73   ar
    39    72    74   ar
    40    46    47    1
    41    37    35   ar
    42    37    39   ar
    43    31    30    1
    44    51    50    2
    45    85    86   ar
    46    35    34   ar
    47    82    84   ar
    48    40    39    1
    49    94    95    1
    50    73    74   ar
    51    74    75    1
    52    39    38   ar
    53    86    84   ar
    54    86    87    1
    55    52    53    1
    56    52    49    1
    57    50    49    1
    58    55    53   ar
    59    30    29    1
    60    30    33    1
    61    53    54   ar
    62    34    33    1
    63    34    36   ar
    64    29    20   am
    65    48    49    1
    66    95    96    1
    67    38    36   ar
    68    26    24   ar
    69    26    28   ar
    70    24    23   ar
    71    20    19    1
    72    20    21    2
    73    19    18    1
    74    19    22    1
    75    28    27   ar
    76    23    22    1
    77    23    25   ar
    78    17    16    1
    79    27    25   ar
    80    16    13    1
    81   139   137   ar
    82   139   138   ar
    83    13    14    1
    84    13    12    1
    85    14    15    2
    86   137   135   ar
    87    98    99    1
    88    98    97    1
    89   100    99    2
    90   138   136   ar
    91   108   106    1
    92    99   101   am
    93   135   136   ar
    94   135   134    1
    95   106   107    1
    96   106   105    1
    97   133   132    2
    98   134   131    1
    99   131   132    1
   100   131   130    1
   101   101   102    1
   102   102   105    1
   103   102   103    1
   104   121   120    1
   105   103   109   am
   106   103   104    2
   107   109   110    1
   108   122   120    1
   109   120   119    1
   110   114   113    1
   111   113   110    1
   112   110   111    1
   113   112   111    2
   114    11     9    1
   115   119   116    1
   116   126   125    2
   117   116   115    1
   118   116   117    1
   119     9     8    2
   120     9    10    1
   121     8     7    1
   122   123   117   am
   123   123   124    1
   124   129   127    1
   125   127   124    1
   126   127   128    1
   127   117   118    2
   128   125   124    1
   129     7     6    1
   130     5     6    1
   131     5     2    1
   132     3     2    1
   133     3     4    2
   134     2     1    1
