@<TRIPOS>MOLECULE
tmp/2qhyB00.pdb
 120 112 0 0 0
SMALL
GASTEIGER

@<TRIPOS>ATOM
      1  N         19.4430   17.2450   15.0710 N.3     8  ARG8       -0.1245
      2  CA        18.7040   18.4170   15.4910 C.3     8  ARG8        0.1563
      3  C         17.7020   18.0460   16.6030 C.2     8  ARG8        0.2260
      4  O         16.9820   17.0270   16.4950 O.2     8  ARG8       -0.2867
      5  CB        17.9760   19.0280   14.2930 C.3     8  ARG8        0.0307
      6  CG        18.9140   19.6440   13.2880 C.3     8  ARG8        0.0489
      7  CD        18.1640   20.5030   12.2790 C.3     8  ARG8        0.2205
      8  NE        19.0560   21.0570   11.2720 N.pl3   8  ARG8       -0.0865
      9  CZ        18.6610   21.8490   10.2760 C.cat   8  ARG8        0.5346
     10  NH1       17.3790   22.1760   10.1350 N.pl3   8  ARG8        0.1354
     11  NH2       19.5490   22.3010    9.4000 N.pl3   8  ARG8        0.1354
     12  N         12.4760   23.1300   16.9180 N.3    23  LEU23      -0.1245
     13  CA        13.8260   23.0250   17.4240 C.3    23  LEU23       0.1561
     14  C         13.8890   23.5800   18.8480 C.2    23  LEU23       0.2260
     15  O         13.4600   24.6980   19.0970 O.2    23  LEU23      -0.2867
     16  CB        14.7430   23.8350   16.4970 C.3    23  LEU23       0.0270
     17  CG        16.1890   23.4600   16.2090 C.3    23  LEU23       0.0019
     18  CD1       16.3150   22.1110   15.5960 C.3    23  LEU23       0.0001
     19  CD2       16.7780   24.5310   15.2830 C.3    23  LEU23       0.0001
     20  N         16.0370   25.3670   21.0350 N.3    25  ASP25      -0.1239
     21  CA        17.1470   26.2000   20.5770 C.3    25  ASP25       0.1674
     22  C         17.6610   27.1630   21.6530 C.2    25  ASP25       0.2266
     23  O         17.1080   28.2490   21.8620 O.2    25  ASP25      -0.2867
     24  CB        16.7060   26.9990   19.3440 C.3    25  ASP25       0.1410
     25  CG        17.8600   27.6870   18.6420 C.2    25  ASP25       0.3668
     26  OD1       17.6490   28.2140   17.5370 O.co2  25  ASP25      -0.2456
     27  OD2       18.9880   27.6910   19.1750 O.co2  25  ASP25      -0.2456
     28  N         20.2540   28.9520   21.4720 N.3    27  GLY27      -0.1210
     29  CA        20.8170   30.1420   20.8420 C.3    27  GLY27       0.1956
     30  C         19.7770   31.1810   20.4460 C.2    27  GLY27       0.2612
     31  O         20.1210   32.2340   19.9100 O.2    27  GLY27      -0.2717
     32  N         18.5060   30.8870   20.7160 N.am   28  ALA28      -0.1965
     33  CA        17.4020   31.7680   20.3570 C.3    28  ALA28       0.1728
     34  C         16.8330   32.3970   21.6200 C.2    28  ALA28       0.2616
     35  O         16.3820   31.6760   22.5260 O.2    28  ALA28      -0.2715
     36  CB        16.3160   30.9860   19.6240 C.3    28  ALA28       0.0334
     37  N         16.8690   33.7290   21.6960 N.am   29  ASP29      -0.1957
     38  CA        16.2530   34.4480   22.8260 C.3    29  ASP29       0.1840
     39  C         14.7450   34.2660   22.8000 C.2    29  ASP29       0.2622
     40  O         14.0910   34.1860   23.8460 O.2    29  ASP29      -0.2715
     41  CB        16.4840   35.9590   22.7530 C.3    29  ASP29       0.1450
     42  CG        17.9440   36.3560   22.7860 C.2    29  ASP29       0.3671
     43  OD1       18.8100   35.5730   23.2400 O.co2  29  ASP29      -0.2456
     44  OD2       18.2030   37.5090   22.3710 O.co2  29  ASP29      -0.2456
     45  N         14.2050   34.2350   21.5860 N.am   30  ASP30      -0.1971
     46  CA        12.7720   34.2610   21.3610 C.3    30  ASP30       0.1709
     47  C         12.3360   33.0830   20.4970 C.2    30  ASP30       0.2293
     48  O         13.1300   32.4690   19.7730 O.2    30  ASP30      -0.2864
     49  CB        12.3670   35.5670   20.6730 C.3    30  ASP30       0.1436
     50  CG        12.7910   36.8120   21.4440 C.2    30  ASP30       0.3671
     51  OD1       12.6720   36.8360   22.6840 O.co2  30  ASP30      -0.2456
     52  OD2       13.2220   37.7900   20.7950 O.co2  30  ASP30      -0.2456
     53  N         10.2480   31.5070   17.4690 N.3    32  VAL32      -0.1245
     54  CA         9.9050   31.8810   16.0950 C.3    32  VAL32       0.1561
     55  C          9.2170   30.7070   15.4100 C.2    32  VAL32       0.2260
     56  O          9.8000   29.6210   15.2720 O.2    32  VAL32      -0.2867
     57  CB        11.1470   32.2800   15.2510 C.3    32  VAL32       0.0252
     58  CG1       10.7030   32.9410   13.9230 C.3    32  VAL32       0.0019
     59  CG2       12.0690   33.2200   16.0330 C.3    32  VAL32       0.0019
     60  N         13.6160   40.5170   13.1540 N.3    47  ILE47      -0.1231
     61  CA        14.5980   39.7410   13.9140 C.3    47  ILE47       0.1692
     62  C         15.6970   39.2630   12.9770 C.2    47  ILE47       0.2593
     63  O         15.4590   38.9920   11.7960 O.2    47  ILE47      -0.2718
     64  CB        13.9650   38.5520   14.6560 C.3    47  ILE47       0.0266
     65  CG1       13.1780   37.6580   13.6850 C.3    47  ILE47       0.0019
     66  CG2       13.0740   39.0750   15.7690 C.3    47  ILE47       0.0020
     67  CD1       12.7810   36.3310   14.2680 C.3    47  ILE47       0.0001
     68  N         16.9070   39.1830   13.5190 N.am   48  GLY48      -0.1942
     69  CA        18.0840   38.9850   12.7010 C.3    48  GLY48       0.2014
     70  C         18.8790   37.7870   13.1420 C.2    48  GLY48       0.2639
     71  O         18.9210   37.4420   14.3180 O.2    48  GLY48      -0.2714
     72  N         19.5140   37.1530   12.1710 N.am   49  GLY49      -0.1939
     73  CA        20.4980   36.1310   12.4340 C.3    49  GLY49       0.2014
     74  C         21.3820   35.9540   11.2150 C.2    49  GLY49       0.2638
     75  O         21.5950   36.8920   10.4340 O.2    49  GLY49      -0.2714
     76  N         21.8920   34.7450   11.0330 N.am   50  ILE50      -0.1977
     77  CA        22.7650   34.4880    9.9000 C.3    50  ILE50       0.1596
     78  C         21.9420   34.6670    8.6250 C.2    50  ILE50       0.2287
     79  O         20.8390   34.1350    8.5040 O.2    50  ILE50      -0.2864
     80  CB        23.4500   33.1100    9.9930 C.3    50  ILE50       0.0276
     81  CG1       24.6180   33.2200   10.9860 C.3    50  ILE50       0.0022
     82  CG2       23.9670   32.6500    8.6340 C.3    50  ILE50       0.0022
     83  CD1       25.2610   31.9450   11.3500 C.3    50  ILE50       0.0001
     84  N          6.8240   34.6780   17.8060 N.3    76  LEU76      -0.1245
     85  CA         7.0650   35.4770   16.6230 C.3    76  LEU76       0.1561
     86  C          6.7210   34.6010   15.4320 C.2    76  LEU76       0.2260
     87  O          7.2130   33.4820   15.3180 O.2    76  LEU76      -0.2867
     88  CB         8.5270   35.9170   16.5760 C.3    76  LEU76       0.0270
     89  CG         9.0280   36.6320   17.8400 C.3    76  LEU76       0.0019
     90  CD1       10.4870   37.0270   17.6970 C.3    76  LEU76       0.0001
     91  CD2        8.1750   37.8500   18.1530 C.3    76  LEU76       0.0001
     92  N         10.2810   31.9190    8.7450 N.3    80  THR80      -0.1204
     93  CA        11.4390   31.1620    9.1960 C.3    80  THR80       0.1979
     94  C         11.4760   29.7930    8.4880 C.2    80  THR80       0.2460
     95  O         10.4340   29.2010    8.2210 O.2    80  THR80      -0.2732
     96  CB        11.4330   30.9790   10.7390 C.3    80  THR80       0.1783
     97  OG1       12.5740   30.2050   11.1350 O.3    80  THR80      -0.2211
     98  CG2       10.1480   30.2810   11.2260 C.3    80  THR80       0.0376
     99  N         12.6750   29.2820    8.1770 N.am   81  PRO81      -0.2717
    100  CA        12.7140   27.9420    7.5840 C.3    81  PRO81       0.1535
    101  C         12.4460   26.7870    8.5530 C.2    81  PRO81       0.2598
    102  O         12.1920   25.6650    8.1100 O.2    81  PRO81      -0.2715
    103  CB        14.1460   27.8450    7.0510 C.3    81  PRO81       0.0310
    104  CG        14.9320   28.6990    7.9630 C.3    81  PRO81       0.0237
    105  CD        14.0260   29.8530    8.3190 C.3    81  PRO81       0.0939
    106  N         12.5250   27.0580    9.8520 N.am   82  VAL82      -0.1978
    107  CA        12.3000   26.0370   10.8750 C.3    82  VAL82       0.1596
    108  C         11.5800   26.6490   12.0700 C.2    82  VAL82       0.2287
    109  O         11.7920   27.8170   12.3980 O.2    82  VAL82      -0.2864
    110  CB        13.6330   25.4070   11.3500 C.3    82  VAL82       0.0276
    111  CG1       14.2540   24.5780   10.2420 C.3    82  VAL82       0.0022
    112  CG2       14.6160   26.4820   11.8390 C.3    82  VAL82       0.0022
    113  N         11.2780   27.3380   15.8120 N.3    84  ILE84      -0.1245
    114  CA        12.3150   27.5280   16.8080 C.3    84  ILE84       0.1561
    115  C         11.6830   27.8140   18.1720 C.2    84  ILE84       0.2260
    116  O         10.9550   28.8060   18.3240 O.2    84  ILE84      -0.2867
    117  CB        13.2100   28.7420   16.4390 C.3    84  ILE84       0.0252
    118  CG1       14.0050   28.4390   15.1640 C.3    84  ILE84       0.0019
    119  CG2       14.1670   29.0930   17.6050 C.3    84  ILE84       0.0019
    120  CD1       14.6100   29.6440   14.5250 C.3    84  ILE84       0.0001
@<TRIPOS>BOND
     1   103   100    1
     2   103   104    1
     3   100    99    1
     4   100   101    1
     5   104   105    1
     6   102   101    2
     7    99   105    1
     8    99    94   am
     9    95    94    2
    10    94    93    1
    11    79    78    2
    12   101   106   am
    13    78    77    1
    14    82    80    1
    15    92    93    1
    16    93    96    1
    17    11     9    1
    18   106   107    1
    19    77    80    1
    20    77    76    1
    21    80    81    1
    22    10     9    1
    23   111   110    1
    24     9     8    2
    25    75    74    2
    26    96    97    1
    27    96    98    1
    28   107   110    1
    29   107   108    1
    30    81    83    1
    31    76    74   am
    32    74    73    1
    33     8     7    1
    34   110   112    1
    35    63    62    2
    36   108   109    2
    37    72    73    1
    38    72    70   am
    39     7     6    1
    40    69    70    1
    41    69    68    1
    42    62    68   am
    43    62    61    1
    44    70    71    2
    45    60    61    1
    46     6     5    1
    47    65    67    1
    48    65    64    1
    49    61    64    1
    50    58    57    1
    51     5     2    1
    52   120   118    1
    53    64    66    1
    54     1     2    1
    55   118   117    1
    56    57    59    1
    57    57    54    1
    58    56    55    2
    59    19    17    1
    60    87    86    2
    61    55    54    1
    62    86    85    1
    63     2     3    1
    64    18    17    1
    65   113   114    1
    66    54    53    1
    67    17    16    1
    68   117   114    1
    69   117   119    1
    70     4     3    2
    71    16    13    1
    72    88    85    1
    73    88    89    1
    74    85    84    1
    75   114   115    1
    76    12    13    1
    77    13    14    1
    78    26    25   ar
    79    90    89    1
    80    89    91    1
    81   115   116    2
    82    25    27   ar
    83    25    24    1
    84    14    15    2
    85    24    21    1
    86    36    33    1
    87    48    47    2
    88    31    30    2
    89    33    32    1
    90    33    34    1
    91    30    32   am
    92    30    29    1
    93    47    46    1
    94    21    20    1
    95    21    22    1
    96    49    46    1
    97    49    50    1
    98    52    50   ar
    99    29    28    1
   100    46    45    1
   101    50    51   ar
   102    45    39   am
   103    34    37   am
   104    34    35    2
   105    22    23    2
   106    37    38    1
   107    44    42   ar
   108    41    42    1
   109    41    38    1
   110    42    43   ar
   111    39    38    1
   112    39    40    2
