@<TRIPOS>MOLECULE
tmp/2qhzB00.pdb
 120 112 0 0 0
SMALL
GASTEIGER

@<TRIPOS>ATOM
      1  N         19.4220   17.0340   15.0540 N.3     8  ARG8       -0.1245
      2  CA        18.7190   18.2410   15.4500 C.3     8  ARG8        0.1563
      3  C         17.7100   17.8990   16.5410 C.2     8  ARG8        0.2260
      4  O         16.9910   16.8930   16.4400 O.2     8  ARG8       -0.2867
      5  CB        18.0220   18.8830   14.2490 C.3     8  ARG8        0.0307
      6  CG        18.9710   19.4470   13.2220 C.3     8  ARG8        0.0489
      7  CD        18.2610   19.7780   11.9130 C.3     8  ARG8        0.2205
      8  NE        19.1400   20.5510   11.0280 N.pl3   8  ARG8       -0.0865
      9  CZ        19.1320   20.5130    9.6940 C.cat   8  ARG8        0.5346
     10  NH1       18.2780   19.7460    9.0170 N.pl3   8  ARG8        0.1354
     11  NH2       19.9850   21.2690    9.0170 N.pl3   8  ARG8        0.1354
     12  N         12.5820   23.0470   16.7680 N.3    23  LEU23      -0.1245
     13  CA        13.8920   22.9040   17.3930 C.3    23  LEU23       0.1561
     14  C         13.8670   23.4290   18.8190 C.2    23  LEU23       0.2260
     15  O         13.4070   24.5350   19.0470 O.2    23  LEU23      -0.2867
     16  CB        14.9450   23.7230   16.6340 C.3    23  LEU23       0.0270
     17  CG        15.6250   23.1460   15.4110 C.3    23  LEU23       0.0019
     18  CD1       16.5770   24.1990   14.8480 C.3    23  LEU23       0.0001
     19  CD2       16.3630   21.8800   15.7620 C.3    23  LEU23       0.0001
     20  N         15.9390   25.2070   21.0210 N.3    25  ASP25      -0.1239
     21  CA        17.0330   26.0500   20.5630 C.3    25  ASP25       0.1674
     22  C         17.5310   27.0170   21.6440 C.2    25  ASP25       0.2266
     23  O         17.0020   28.1270   21.8240 O.2    25  ASP25      -0.2867
     24  CB        16.5790   26.8170   19.3220 C.3    25  ASP25       0.1410
     25  CG        17.7290   27.5160   18.6080 C.2    25  ASP25       0.3668
     26  OD1       17.4830   28.0580   17.5170 O.co2  25  ASP25      -0.2456
     27  OD2       18.8660   27.5040   19.1270 O.co2  25  ASP25      -0.2456
     28  N         20.1160   28.7230   21.5330 N.3    27  GLY27      -0.1210
     29  CA        20.7170   29.8950   20.9040 C.3    27  GLY27       0.1956
     30  C         19.7170   30.9820   20.5190 C.2    27  GLY27       0.2612
     31  O         20.1180   32.0360   20.0380 O.2    27  GLY27      -0.2717
     32  N         18.4300   30.7180   20.7360 N.am   28  ALA28      -0.1965
     33  CA        17.3460   31.6420   20.4020 C.3    28  ALA28       0.1728
     34  C         16.7270   32.2410   21.6680 C.2    28  ALA28       0.2616
     35  O         16.2500   31.5030   22.5290 O.2    28  ALA28      -0.2715
     36  CB        16.2790   30.9030   19.6020 C.3    28  ALA28       0.0334
     37  N         16.7270   33.5710   21.7690 N.am   29  ASP29      -0.1957
     38  CA        16.1150   34.2760   22.9150 C.3    29  ASP29       0.1840
     39  C         14.6110   34.0470   22.9170 C.2    29  ASP29       0.2622
     40  O         13.9810   33.9100   23.9760 O.2    29  ASP29      -0.2715
     41  CB        16.3070   35.7960   22.8160 C.3    29  ASP29       0.1450
     42  CG        17.7560   36.2280   22.7820 C.2    29  ASP29       0.3671
     43  OD1       18.6520   35.4660   23.2020 O.co2  29  ASP29      -0.2456
     44  OD2       17.9790   37.3830   22.3560 O.co2  29  ASP29      -0.2456
     45  N         14.0590   34.0220   21.7060 N.am   30  ASP30      -0.1971
     46  CA        12.6310   34.0760   21.4620 C.3    30  ASP30       0.1709
     47  C         12.1980   32.9320   20.5540 C.2    30  ASP30       0.2293
     48  O         13.0020   32.3560   19.8110 O.2    30  ASP30      -0.2864
     49  CB        12.2810   35.4070   20.7880 C.3    30  ASP30       0.1436
     50  CG        12.7110   36.6100   21.6060 C.2    30  ASP30       0.3671
     51  OD1       12.4040   36.6420   22.8150 O.co2  30  ASP30      -0.2456
     52  OD2       13.3520   37.5250   21.0420 O.co2  30  ASP30      -0.2456
     53  N         10.1620   31.3770   17.4390 N.3    32  VAL32      -0.1245
     54  CA         9.8190   31.7910   16.0760 C.3    32  VAL32       0.1561
     55  C          9.1630   30.6180   15.3470 C.2    32  VAL32       0.2260
     56  O          9.7570   29.5430   15.2300 O.2    32  VAL32      -0.2867
     57  CB        11.0460   32.2150   15.2490 C.3    32  VAL32       0.0252
     58  CG1       10.5870   32.9580   13.9720 C.3    32  VAL32       0.0019
     59  CG2       12.0100   33.0740   16.0650 C.3    32  VAL32       0.0019
     60  N         13.5710   40.5050   13.1050 N.3    47  ILE47      -0.1231
     61  CA        14.5080   39.6880   13.8740 C.3    47  ILE47       0.1692
     62  C         15.6530   39.2050   12.9890 C.2    47  ILE47       0.2593
     63  O         15.4720   38.9370   11.8010 O.2    47  ILE47      -0.2718
     64  CB        13.8340   38.5020   14.5920 C.3    47  ILE47       0.0266
     65  CG1       13.0950   37.5770   13.6070 C.3    47  ILE47       0.0019
     66  CG2       12.8990   39.0220   15.6710 C.3    47  ILE47       0.0020
     67  CD1       12.6920   36.2380   14.2440 C.3    47  ILE47       0.0001
     68  N         16.8380   39.1330   13.5840 N.am   48  GLY48      -0.1942
     69  CA        18.0510   38.9280   12.8230 C.3    48  GLY48       0.2014
     70  C         18.8140   37.6920   13.2400 C.2    48  GLY48       0.2639
     71  O         18.8350   37.3140   14.4170 O.2    48  GLY48      -0.2714
     72  N         19.4390   37.0670   12.2550 N.am   49  GLY49      -0.1939
     73  CA        20.3830   35.9940   12.4930 C.3    49  GLY49       0.2014
     74  C         21.3490   35.8500   11.3290 C.2    49  GLY49       0.2638
     75  O         21.6310   36.8110   10.6000 O.2    49  GLY49      -0.2714
     76  N         21.8550   34.6420   11.1380 N.am   50  ILE50      -0.1977
     77  CA        22.7410   34.4020   10.0180 C.3    50  ILE50       0.1596
     78  C         21.9590   34.6480    8.7230 C.2    50  ILE50       0.2287
     79  O         20.8340   34.1690    8.5670 O.2    50  ILE50      -0.2864
     80  CB        23.3660   33.0100   10.0780 C.3    50  ILE50       0.0276
     81  CG1       24.4620   33.0210   11.1530 C.3    50  ILE50       0.0022
     82  CG2       23.9260   32.6130    8.7110 C.3    50  ILE50       0.0022
     83  CD1       25.0560   31.6750   11.4810 C.3    50  ILE50       0.0001
     84  N          6.7850   34.5130   17.8220 N.3    76  LEU76      -0.1245
     85  CA         7.0460   35.3320   16.6500 C.3    76  LEU76       0.1561
     86  C          6.7150   34.5090   15.4200 C.2    76  LEU76       0.2260
     87  O          7.2010   33.3980   15.2730 O.2    76  LEU76      -0.2867
     88  CB         8.5110   35.7550   16.6170 C.3    76  LEU76       0.0270
     89  CG         8.9990   36.5040   17.8630 C.3    76  LEU76       0.0019
     90  CD1       10.4550   36.8940   17.6900 C.3    76  LEU76       0.0001
     91  CD2        8.1470   37.7350   18.1470 C.3    76  LEU76       0.0001
     92  N         10.2670   31.9470    8.6900 N.3    80  THR80      -0.1204
     93  CA        11.4140   31.1980    9.1460 C.3    80  THR80       0.1979
     94  C         11.4670   29.8540    8.4140 C.2    80  THR80       0.2460
     95  O         10.4240   29.2680    8.1100 O.2    80  THR80      -0.2732
     96  CB        11.3860   30.9850   10.6770 C.3    80  THR80       0.1783
     97  OG1       12.5330   30.2320   11.0590 O.3    80  THR80      -0.2211
     98  CG2       10.1190   30.2430   11.1290 C.3    80  THR80       0.0376
     99  N         12.6820   29.3750    8.0860 N.am   81  PRO81      -0.2717
    100  CA        12.8120   28.0580    7.4580 C.3    81  PRO81       0.1535
    101  C         12.6180   26.8770    8.4100 C.2    81  PRO81       0.2598
    102  O         12.4750   25.7360    7.9590 O.2    81  PRO81      -0.2715
    103  CB        14.2460   28.0730    6.9320 C.3    81  PRO81       0.0310
    104  CG        14.9670   28.9470    7.8900 C.3    81  PRO81       0.0237
    105  CD        13.9910   30.0350    8.2370 C.3    81  PRO81       0.0939
    106  N         12.6530   27.1410    9.7080 N.am   82  VAL82      -0.1978
    107  CA        12.4940   26.0990   10.7090 C.3    82  VAL82       0.1596
    108  C         11.7270   26.6660   11.9090 C.2    82  VAL82       0.2287
    109  O         11.9160   27.8330   12.2780 O.2    82  VAL82      -0.2864
    110  CB        13.8760   25.5300   11.1280 C.3    82  VAL82       0.0276
    111  CG1       14.8160   26.6360   11.6380 C.3    82  VAL82       0.0022
    112  CG2       13.7230   24.4320   12.1890 C.3    82  VAL82       0.0022
    113  N         11.1970   27.1950   15.7450 N.3    84  ILE84      -0.1245
    114  CA        12.2260   27.3920   16.7600 C.3    84  ILE84       0.1561
    115  C         11.5900   27.6750   18.1120 C.2    84  ILE84       0.2260
    116  O         10.8750   28.6760   18.2730 O.2    84  ILE84      -0.2867
    117  CB        13.1600   28.5820   16.4070 C.3    84  ILE84       0.0252
    118  CG1       13.9490   28.2810   15.1290 C.3    84  ILE84       0.0019
    119  CG2       14.1080   28.8880   17.5680 C.3    84  ILE84       0.0019
    120  CD1       14.6280   29.4760   14.4910 C.3    84  ILE84       0.0001
@<TRIPOS>BOND
     1   103   100    1
     2   103   104    1
     3   100    99    1
     4   100   101    1
     5   104   105    1
     6   102   101    2
     7    99   105    1
     8    99    94   am
     9    95    94    2
    10   101   106   am
    11    94    93    1
    12    79    78    2
    13    92    93    1
    14    82    80    1
    15    78    77    1
    16    11     9    1
    17    10     9    1
    18    93    96    1
    19     9     8    2
    20   106   107    1
    21    77    80    1
    22    77    76    1
    23    80    81    1
    24    75    74    2
    25    96    97    1
    26    96    98    1
    27   107   110    1
    28   107   108    1
    29     8     7    1
    30   110   111    1
    31   110   112    1
    32    76    74   am
    33    81    83    1
    34    74    73    1
    35    63    62    2
    36   108   109    2
    37     7     6    1
    38    72    73    1
    39    72    70   am
    40    69    70    1
    41    69    68    1
    42    62    68   am
    43    62    61    1
    44    60    61    1
    45     6     5    1
    46    70    71    2
    47    65    67    1
    48    65    64    1
    49    61    64    1
    50    58    57    1
    51     5     2    1
    52   120   118    1
    53    64    66    1
    54    18    17    1
    55     1     2    1
    56   118   117    1
    57    56    55    2
    58    57    59    1
    59    57    54    1
    60    87    86    2
    61    55    54    1
    62    17    19    1
    63    17    16    1
    64    86    85    1
    65     2     3    1
    66   113   114    1
    67    54    53    1
    68   117   114    1
    69   117   119    1
    70     4     3    2
    71    88    85    1
    72    88    89    1
    73    16    13    1
    74    85    84    1
    75   114   115    1
    76    12    13    1
    77    13    14    1
    78    26    25   ar
    79    90    89    1
    80    89    91    1
    81   115   116    2
    82    25    27   ar
    83    25    24    1
    84    14    15    2
    85    24    21    1
    86    36    33    1
    87    48    47    2
    88    31    30    2
    89    33    32    1
    90    33    34    1
    91    30    32   am
    92    30    29    1
    93    47    46    1
    94    21    20    1
    95    21    22    1
    96    49    46    1
    97    49    50    1
    98    29    28    1
    99    52    50   ar
   100    46    45    1
   101    50    51   ar
   102    22    23    2
   103    34    37   am
   104    34    35    2
   105    45    39   am
   106    37    38    1
   107    44    42   ar
   108    42    41    1
   109    42    43   ar
   110    41    38    1
   111    38    39    1
   112    39    40    2
