@<TRIPOS>MOLECULE
tmp/2qi0B00.pdb
 121 113 0 0 0
SMALL
GASTEIGER

@<TRIPOS>ATOM
      1  N         19.5220   17.2060   15.0130 N.3     8  ARG8       -0.1245
      2  CA        18.7740   18.3660   15.4230 C.3     8  ARG8        0.1563
      3  C         17.7750   17.9960   16.5190 C.2     8  ARG8        0.2260
      4  O         17.0300   17.0300   16.3900 O.2     8  ARG8       -0.2867
      5  CB        18.0360   18.9640   14.2270 C.3     8  ARG8        0.0307
      6  CG        18.9530   19.5860   13.1830 C.3     8  ARG8        0.0489
      7  CD        18.1500   20.3150   12.1010 C.3     8  ARG8        0.2205
      8  NE        19.0100   21.1450   11.2480 N.pl3   8  ARG8       -0.0865
      9  CZ        18.5630   22.0930   10.4210 C.cat   8  ARG8        0.5346
     10  NH1       17.2600   22.3330   10.3070 N.pl3   8  ARG8        0.1354
     11  NH2       19.4210   22.8050    9.6890 N.pl3   8  ARG8        0.1354
     12  N         12.3610   23.0280   16.7800 N.3    23  LEU23      -0.1245
     13  CA        13.7540   22.8680   17.1710 C.3    23  LEU23       0.1561
     14  C         13.9330   23.5140   18.5320 C.2    23  LEU23       0.2260
     15  O         13.5640   24.6630   18.7110 O.2    23  LEU23      -0.2867
     16  CB        14.5940   23.5890   16.1160 C.3    23  LEU23       0.0270
     17  CG        16.1090   23.5500   16.0730 C.3    23  LEU23       0.0019
     18  CD1       16.6190   22.1430   15.9820 C.3    23  LEU23       0.0001
     19  CD2       16.5470   24.3740   14.8620 C.3    23  LEU23       0.0001
     20  N         16.0550   25.4200   20.7150 N.3    25  ASP25      -0.1239
     21  CA        17.1350   26.2860   20.2580 C.3    25  ASP25       0.1674
     22  C         17.6350   27.2400   21.3540 C.2    25  ASP25       0.2266
     23  O         17.1080   28.3490   21.5360 O.2    25  ASP25      -0.2867
     24  CB        16.6510   27.0880   19.0460 C.3    25  ASP25       0.1410
     25  CG        17.7880   27.7710   18.3050 C.2    25  ASP25       0.3668
     26  OD1       17.5470   28.3490   17.2310 O.co2  25  ASP25      -0.2456
     27  OD2       18.9290   27.7250   18.7940 O.co2  25  ASP25      -0.2456
     28  N         20.2120   28.9600   21.2450 N.3    27  GLY27      -0.1210
     29  CA        20.7630   30.1530   20.6170 C.3    27  GLY27       0.1956
     30  C         19.7410   31.1950   20.1760 C.2    27  GLY27       0.2612
     31  O         20.1240   32.2650   19.6980 O.2    27  GLY27      -0.2717
     32  N         18.4540   30.8940   20.3380 N.am   28  ALA28      -0.1965
     33  CA        17.3790   31.8270   19.9920 C.3    28  ALA28       0.1728
     34  C         16.7640   32.4940   21.2240 C.2    28  ALA28       0.2616
     35  O         16.2570   31.8090   22.1160 O.2    28  ALA28      -0.2715
     36  CB        16.3040   31.1130   19.2310 C.3    28  ALA28       0.0334
     37  N         16.7700   33.8240   21.2640 N.am   29  ASP29      -0.1957
     38  CA        16.1960   34.5410   22.4070 C.3    29  ASP29       0.1840
     39  C         14.6980   34.3310   22.3770 C.2    29  ASP29       0.2622
     40  O         14.0430   34.2760   23.4190 O.2    29  ASP29      -0.2715
     41  CB        16.4310   36.0500   22.3210 C.3    29  ASP29       0.1450
     42  CG        17.9030   36.4370   22.2710 C.2    29  ASP29       0.3671
     43  OD1       18.7750   35.6740   22.7380 O.co2  29  ASP29      -0.2456
     44  OD2       18.1630   37.5650   21.8130 O.co2  29  ASP29      -0.2456
     45  N         14.1800   34.2520   21.1510 N.am   30  ASP30      -0.1971
     46  CA        12.7560   34.2620   20.8680 C.3    30  ASP30       0.1709
     47  C         12.3300   32.9810   20.1730 C.2    30  ASP30       0.2293
     48  O         13.1570   32.2380   19.6280 O.2    30  ASP30      -0.2864
     49  CB        12.4120   35.4540   19.9770 C.3    30  ASP30       0.1436
     50  CG        12.9350   36.7590   20.5330 C.2    30  ASP30       0.3671
     51  OD1       12.6150   37.0870   21.7000 O.co2  30  ASP30      -0.2456
     52  OD2       13.6630   37.4560   19.8010 O.co2  30  ASP30      -0.2456
     53  N         10.1860   31.4300   17.1810 N.3    32  VAL32      -0.1245
     54  CA         9.8240   31.8320   15.8350 C.3    32  VAL32       0.1561
     55  C          9.1760   30.6500   15.1270 C.2    32  VAL32       0.2260
     56  O          9.7710   29.5720   14.9910 O.2    32  VAL32      -0.2867
     57  CB        11.0620   32.2840   15.0370 C.3    32  VAL32       0.0252
     58  CG1       10.6430   33.0290   13.7730 C.3    32  VAL32       0.0019
     59  CG2       11.9920   33.1370   15.9190 C.3    32  VAL32       0.0019
     60  N          7.8300   43.1580   13.6220 N.3    45  LYS45      -0.1245
     61  CA         9.1490   43.1380   14.2120 C.3    45  LYS45       0.1561
     62  C         10.1350   42.5790   13.1850 C.2    45  LYS45       0.2260
     63  O          9.7520   41.8880   12.2350 O.2    45  LYS45      -0.2867
     64  CB         9.1000   42.2570   15.4560 C.3    45  LYS45       0.0271
     65  CG        10.3770   42.1200   16.2710 C.3    45  LYS45       0.0035
     66  CD        10.1510   41.1290   17.4010 C.3    45  LYS45       0.0206
     67  CE        11.4090   40.8420   18.1860 C.3    45  LYS45       0.1093
     68  NZ        11.7790   41.9630   19.0670 N.3    45  LYS45      -0.1314
     69  N         13.8230   40.3820   13.1550 N.3    47  ILE47      -0.1231
     70  CA        14.8380   39.6340   13.8860 C.3    47  ILE47       0.1692
     71  C         15.9700   39.1970   12.9490 C.2    47  ILE47       0.2593
     72  O         15.7430   38.8720   11.7800 O.2    47  ILE47      -0.2718
     73  CB        14.2500   38.3970   14.5940 C.3    47  ILE47       0.0266
     74  CG1       13.4010   37.5670   13.6240 C.3    47  ILE47       0.0019
     75  CG2       13.4250   38.8200   15.8050 C.3    47  ILE47       0.0020
     76  CD1       13.1960   36.1330   14.0810 C.3    47  ILE47       0.0001
     77  N         17.1880   39.2060   13.4780 N.am   48  GLY48      -0.1942
     78  CA        18.3710   38.9250   12.6910 C.3    48  GLY48       0.2014
     79  C         19.0440   37.6010   13.0230 C.2    48  GLY48       0.2639
     80  O         19.0820   37.1710   14.1680 O.2    48  GLY48      -0.2714
     81  N         19.6040   36.9640   12.0100 N.am   49  GLY49      -0.1939
     82  CA        20.5470   35.8830   12.2550 C.3    49  GLY49       0.2014
     83  C         21.5900   35.7700   11.1690 C.2    49  GLY49       0.2638
     84  O         21.9600   36.7520   10.5460 O.2    49  GLY49      -0.2714
     85  N         22.0480   34.5500   10.9350 N.am   50  ILE50      -0.1977
     86  CA        22.8930   34.2850    9.7870 C.3    50  ILE50       0.1596
     87  C         22.1030   34.6370    8.5290 C.2    50  ILE50       0.2287
     88  O         20.9290   34.2910    8.3950 O.2    50  ILE50      -0.2864
     89  CB        23.4220   32.8480    9.8180 C.3    50  ILE50       0.0276
     90  CG1       24.6190   32.8200   10.7710 C.3    50  ILE50       0.0022
     91  CG2       23.8410   32.3670    8.4450 C.3    50  ILE50       0.0022
     92  CD1       25.0640   31.4730   11.1330 C.3    50  ILE50       0.0001
     93  N         10.4150   31.8430    8.5260 N.3    80  THR80      -0.1204
     94  CA        11.5200   30.9960    8.9650 C.3    80  THR80       0.1979
     95  C         11.4250   29.6350    8.2800 C.2    80  THR80       0.2460
     96  O         10.3340   29.1240    8.0880 O.2    80  THR80      -0.2732
     97  CB        11.5110   30.7930   10.4980 C.3    80  THR80       0.1783
     98  OG1       12.5760   29.9160   10.8760 O.3    80  THR80      -0.2211
     99  CG2       10.1880   30.1800   10.9820 C.3    80  THR80       0.0376
    100  N         12.5720   29.0470    7.8960 N.am   81  PRO81      -0.2717
    101  CA        12.5800   27.6800    7.3610 C.3    81  PRO81       0.1535
    102  C         12.2340   26.5880    8.3740 C.2    81  PRO81       0.2598
    103  O         11.9210   25.4640    7.9910 O.2    81  PRO81      -0.2715
    104  CB        14.0230   27.4930    6.8710 C.3    81  PRO81       0.0310
    105  CG        14.8200   28.5050    7.6020 C.3    81  PRO81       0.0237
    106  CD        13.9180   29.6480    7.9260 C.3    81  PRO81       0.0939
    107  N         12.3270   26.8990    9.6590 N.am   82  VAL82      -0.1978
    108  CA        12.0900   25.9060   10.6900 C.3    82  VAL82       0.1596
    109  C         11.4280   26.5700   11.8850 C.2    82  VAL82       0.2287
    110  O         11.6770   27.7540   12.1910 O.2    82  VAL82      -0.2864
    111  CB        13.3950   25.2270   11.1270 C.3    82  VAL82       0.0276
    112  CG1       14.0370   24.4730    9.9660 C.3    82  VAL82       0.0022
    113  CG2       14.3570   26.2610   11.6600 C.3    82  VAL82       0.0022
    114  N         11.1480   27.3220   15.5850 N.3    84  ILE84      -0.1245
    115  CA        12.2000   27.5170   16.5760 C.3    84  ILE84       0.1561
    116  C         11.6200   27.7990   17.9700 C.2    84  ILE84       0.2260
    117  O         10.9160   28.8020   18.1700 O.2    84  ILE84      -0.2867
    118  CB        13.0930   28.7030   16.1920 C.3    84  ILE84       0.0252
    119  CG1       13.9110   28.3860   14.9410 C.3    84  ILE84       0.0019
    120  CG2       14.0090   29.0810   17.3840 C.3    84  ILE84       0.0019
    121  CD1       14.4990   29.6020   14.2480 C.3    84  ILE84       0.0001
@<TRIPOS>BOND
     1   104   101    1
     2   104   105    1
     3   101   100    1
     4   101   102    1
     5   105   106    1
     6   100   106    1
     7   100    95   am
     8   103   102    2
     9    96    95    2
    10    95    94    1
    11   102   107   am
    12    88    87    2
    13    91    89    1
    14    93    94    1
    15    87    86    1
    16    94    97    1
    17   107   108    1
    18    11     9    1
    19    86    89    1
    20    86    85    1
    21    89    90    1
    22   112   111    1
    23    10     9    1
    24     9     8    2
    25    97    98    1
    26    97    99    1
    27    84    83    2
    28   108   111    1
    29   108   109    1
    30    90    92    1
    31    85    83   am
    32   111   113    1
    33    83    82    1
    34     8     7    1
    35    72    71    2
    36   109   110    2
    37    81    82    1
    38    81    79   am
    39     7     6    1
    40    63    62    2
    41    78    79    1
    42    78    77    1
    43    71    77   am
    44    71    70    1
    45    79    80    2
    46    69    70    1
    47     6     5    1
    48    62    61    1
    49    60    61    1
    50    74    76    1
    51    74    73    1
    52    58    57    1
    53    70    73    1
    54    61    64    1
    55     5     2    1
    56   121   119    1
    57    73    75    1
    58    19    17    1
    59   119   118    1
    60    56    55    2
    61     1     2    1
    62    57    54    1
    63    57    59    1
    64    55    54    1
    65     2     3    1
    66    64    65    1
    67   114   115    1
    68    54    53    1
    69    18    17    1
    70    17    16    1
    71    16    13    1
    72   118   115    1
    73   118   120    1
    74    65    66    1
    75     4     3    2
    76   115   116    1
    77    12    13    1
    78    13    14    1
    79    26    25   ar
    80    66    67    1
    81   116   117    2
    82    67    68    1
    83    25    27   ar
    84    25    24    1
    85    14    15    2
    86    24    21    1
    87    36    33    1
    88    48    47    2
    89    31    30    2
    90    52    50   ar
    91    49    50    1
    92    49    46    1
    93    33    32    1
    94    33    34    1
    95    47    46    1
    96    30    32   am
    97    30    29    1
    98    21    20    1
    99    21    22    1
   100    50    51   ar
   101    29    28    1
   102    46    45    1
   103    45    39   am
   104    34    37   am
   105    34    35    2
   106    37    38    1
   107    22    23    2
   108    44    42   ar
   109    42    41    1
   110    42    43   ar
   111    41    38    1
   112    39    38    1
   113    39    40    2
