@<TRIPOS>MOLECULE
tmp/2qi3A00.pdb
 112 105 0 0 0
SMALL
GASTEIGER

@<TRIPOS>ATOM
      1  N         20.8840   34.0850   27.8830 N.3     8  ARG8       -0.1245
      2  CA        21.6080   33.4370   26.7870 C.3     8  ARG8        0.1563
      3  C         22.7140   32.5350   27.3340 C.2     8  ARG8        0.2260
      4  O         23.4930   32.9680   28.1880 O.2     8  ARG8       -0.2867
      5  CB        22.2440   34.4750   25.8680 C.3     8  ARG8        0.0307
      6  CG        21.2670   35.2220   25.0020 C.3     8  ARG8        0.0489
      7  CD        22.0140   36.1960   24.1250 C.3     8  ARG8        0.2205
      8  NE        21.1690   37.2750   23.6150 N.pl3   8  ARG8       -0.0865
      9  CZ        21.0220   37.6040   22.3320 C.cat   8  ARG8        0.5346
     10  NH1       21.6500   36.9210   21.3530 N.pl3   8  ARG8        0.1354
     11  NH2       20.2330   38.6340   22.0180 N.pl3   8  ARG8        0.1354
     12  N         28.0060   31.3490   22.0460 N.3    23  LEU23      -0.1245
     13  CA        26.6610   30.9380   22.3940 C.3    23  LEU23       0.1561
     14  C         26.4710   29.4470   22.1350 C.2    23  LEU23       0.2260
     15  O         26.6970   28.9650   21.0190 O.2    23  LEU23      -0.2867
     16  CB        25.6780   31.7330   21.5350 C.3    23  LEU23       0.0270
     17  CG        24.1810   31.5100   21.7130 C.3    23  LEU23       0.0019
     18  CD1       23.7500   32.0520   23.0460 C.3    23  LEU23       0.0001
     19  CD2       23.4270   32.1650   20.5490 C.3    23  LEU23       0.0001
     20  N         24.4110   26.6860   21.0750 N.3    25  ASP25      -0.1239
     21  CA        23.3470   26.8440   20.0920 C.3    25  ASP25       0.1674
     22  C         22.8960   25.4890   19.5410 C.2    25  ASP25       0.2266
     23  O         23.4200   25.0060   18.5460 O.2    25  ASP25      -0.2867
     24  CB        23.8410   27.7690   18.9680 C.3    25  ASP25       0.1410
     25  CG        22.7330   28.1690   17.9930 C.2    25  ASP25       0.3668
     26  OD1       21.6560   27.5530   18.0270 O.co2  25  ASP25      -0.2456
     27  OD2       22.9480   29.0940   17.1870 O.co2  25  ASP25      -0.2456
     28  N         20.2290   24.7300   17.9620 N.3    27  GLY27      -0.1210
     29  CA        19.6320   24.8820   16.6300 C.3    27  GLY27       0.1956
     30  C         20.6080   25.0720   15.4760 C.2    27  GLY27       0.2612
     31  O         20.1820   25.2470   14.3240 O.2    27  GLY27      -0.2717
     32  N         21.9070   25.0270   15.7760 N.am   28  ALA28      -0.1965
     33  CA        22.9630   25.1050   14.7760 C.3    28  ALA28       0.1728
     34  C         23.6490   23.7500   14.6160 C.2    28  ALA28       0.2616
     35  O         24.1190   23.1850   15.5940 O.2    28  ALA28      -0.2715
     36  CB        23.9730   26.1760   15.1830 C.3    28  ALA28       0.0334
     37  N         23.6720   23.2210   13.3860 N.am   29  ASP29      -0.1957
     38  CA        24.4030   21.9910   13.0740 C.3    29  ASP29       0.1840
     39  C         25.8830   22.1940   13.3600 C.2    29  ASP29       0.2622
     40  O         26.5600   21.3160   13.9050 O.2    29  ASP29      -0.2715
     41  CB        24.3000   21.6380   11.5840 C.3    29  ASP29       0.1450
     42  CG        22.9190   21.1910   11.1600 C.2    29  ASP29       0.3671
     43  OD1       22.0600   20.9250   12.0260 O.co2  29  ASP29      -0.2456
     44  OD2       22.7110   21.0930    9.9310 O.co2  29  ASP29      -0.2456
     45  N         26.3660   23.3690   12.9650 N.am   30  ASP30      -0.1971
     46  CA        27.7730   23.6480   12.8710 C.3    30  ASP30       0.1709
     47  C         28.1520   24.8740   13.6730 C.2    30  ASP30       0.2293
     48  O         27.3740   25.8160   13.8290 O.2    30  ASP30      -0.2864
     49  CB        28.1670   23.8810   11.4080 C.3    30  ASP30       0.1436
     50  CG        27.7780   22.7260   10.5060 C.2    30  ASP30       0.3671
     51  OD1       28.1450   21.5850   10.8210 O.co2  30  ASP30      -0.2456
     52  OD2       27.1100   22.9690    9.4850 O.co2  30  ASP30      -0.2456
     53  N         29.9970   28.2520   14.1300 N.3    32  VAL32      -0.1245
     54  CA        30.3120   29.3850   13.2670 C.3    32  VAL32       0.1561
     55  C         30.8340   30.5240   14.1310 C.2    32  VAL32       0.2260
     56  O         30.1280   31.0120   15.0210 O.2    32  VAL32      -0.2867
     57  CB        29.0950   29.8750   12.4700 C.3    32  VAL32       0.0252
     58  CG1       29.5480   30.7820   11.3250 C.3    32  VAL32       0.0019
     59  CG2       28.2880   28.7040   11.9300 C.3    32  VAL32       0.0019
     60  N         26.6680   28.8850    3.7500 N.3    47  ILE47      -0.1231
     61  CA        25.6300   28.4210    4.6630 C.3    47  ILE47       0.1692
     62  C         24.4900   29.4190    4.6830 C.2    47  ILE47       0.2593
     63  O         24.6910   30.6150    4.4540 O.2    47  ILE47      -0.2718
     64  CB        26.1650   28.1390    6.1050 C.3    47  ILE47       0.0266
     65  CG1       26.7580   29.3950    6.7550 C.3    47  ILE47       0.0019
     66  CG2       27.1830   27.0260    6.0750 C.3    47  ILE47       0.0020
     67  CD1       27.0860   29.2110    8.2450 C.3    47  ILE47       0.0001
     68  N         23.2900   28.9040    4.9300 N.am   48  GLY48      -0.1942
     69  CA        22.0730   29.6990    4.8890 C.3    48  GLY48       0.2014
     70  C         21.3250   29.6310    6.2000 C.2    48  GLY48       0.2639
     71  O         21.0060   28.5620    6.6830 O.2    48  GLY48      -0.2714
     72  N         21.0560   30.7920    6.7740 N.am   49  GLY49      -0.1939
     73  CA        20.3090   30.8830    8.0070 C.3    49  GLY49       0.2014
     74  C         18.9640   31.5250    7.7640 C.2    49  GLY49       0.2638
     75  O         18.4570   31.5720    6.6320 O.2    49  GLY49      -0.2714
     76  N         18.3940   32.0480    8.8380 N.am   50  ILE50      -0.1977
     77  CA        17.0730   32.6430    8.7740 C.3    50  ILE50       0.1596
     78  C         17.0060   33.8430    7.8180 C.2    50  ILE50       0.2287
     79  O         15.9440   34.1340    7.2670 O.2    50  ILE50      -0.2864
     80  CB        16.5990   33.0570   10.1800 C.3    50  ILE50       0.0276
     81  CG1       15.1110   32.7850   10.3370 C.3    50  ILE50       0.0022
     82  CG2       16.9510   34.5010   10.4980 C.3    50  ILE50       0.0022
     83  CD1       14.6560   32.8270   11.7670 C.3    50  ILE50       0.0001
     84  N         28.7620   35.6740   10.8590 N.3    80  THR80      -0.1204
     85  CA        27.6990   35.3160   11.7890 C.3    80  THR80       0.1979
     86  C         27.4550   36.4850   12.7460 C.2    80  THR80       0.2460
     87  O         28.4080   37.1720   13.1330 O.2    80  THR80      -0.2732
     88  CB        28.0370   34.0240   12.5760 C.3    80  THR80       0.1783
     89  OG1       27.0140   33.7660   13.5330 O.3    80  THR80      -0.2211
     90  CG2       29.3880   34.1100   13.2920 C.3    80  THR80       0.0376
     91  N         26.1860   36.7280   13.1230 N.am   81  PRO81      -0.2717
     92  CA        25.9130   37.8030   14.0840 C.3    81  PRO81       0.1535
     93  C         26.5970   37.6410   15.4290 C.2    81  PRO81       0.2598
     94  O         26.8810   38.6370   16.0900 O.2    81  PRO81      -0.2715
     95  CB        24.3880   37.7460   14.2850 C.3    81  PRO81       0.0310
     96  CG        23.8600   36.9050   13.2060 C.3    81  PRO81       0.0237
     97  CD        24.9510   36.0460   12.6850 C.3    81  PRO81       0.0939
     98  N         26.8510   36.3900   15.8160 N.am   82  VAL82      -0.1978
     99  CA        27.4020   36.0410   17.1210 C.3    82  VAL82       0.1596
    100  C         28.1800   34.7220   16.9890 C.2    82  VAL82       0.2287
    101  O         27.8090   33.8710   16.1740 O.2    82  VAL82      -0.2864
    102  CB        26.2410   35.8930   18.1580 C.3    82  VAL82       0.0276
    103  CG1       26.6420   35.0400   19.3590 C.3    82  VAL82       0.0022
    104  CG2       25.7260   37.2740   18.5950 C.3    82  VAL82       0.0022
    105  N         28.7830   31.1350   17.5530 N.3    84  ILE84      -0.1245
    106  CA        27.8820   30.0510   17.9210 C.3    84  ILE84       0.1561
    107  C         28.5850   28.7030   17.9360 C.2    84  ILE84       0.2260
    108  O         29.2850   28.3190   16.9810 O.2    84  ILE84      -0.2867
    109  CB        26.5920   29.9890   17.0280 C.3    84  ILE84       0.0252
    110  CG1       26.9230   29.7080   15.5540 C.3    84  ILE84       0.0019
    111  CG2       25.7940   31.2600   17.1750 C.3    84  ILE84       0.0019
    112  CD1       25.7350   29.7510   14.6440 C.3    84  ILE84       0.0001
@<TRIPOS>BOND
     1    60    61    1
     2    63    62    2
     3    61    62    1
     4    61    64    1
     5    62    68   am
     6    69    68    1
     7    69    70    1
     8    66    64    1
     9    64    65    1
    10    70    71    2
    11    70    72   am
    12    75    74    2
    13    65    67    1
    14    72    73    1
    15    79    78    2
    16    74    73    1
    17    74    76   am
    18    78    77    1
    19    77    76    1
    20    77    80    1
    21    52    50   ar
    22    44    42   ar
    23    80    81    1
    24    80    82    1
    25    81    83    1
    26    50    51   ar
    27    50    49    1
    28    84    85    1
    29    42    41    1
    30    42    43   ar
    31    58    57    1
    32    49    46    1
    33    41    38    1
    34    85    88    1
    35    85    86    1
    36    59    57    1
    37    57    54    1
    38    88    90    1
    39    88    89    1
    40    97    91    1
    41    97    96    1
    42    86    91   am
    43    86    87    2
    44    46    45    1
    45    46    47    1
    46    45    39   am
    47    38    39    1
    48    38    37    1
    49    91    92    1
    50    96    95    1
    51    54    53    1
    52    54    55    1
    53    39    40    2
    54    37    34   am
    55    47    48    2
    56    92    95    1
    57    92    93    1
    58    55    56    2
    59    31    30    2
    60    34    33    1
    61    34    35    2
    62   112   110    1
    63    33    36    1
    64    33    32    1
    65    93    98   am
    66    93    94    2
    67    30    32   am
    68    30    29    1
    69   110   109    1
    70    98    99    1
    71   101   100    2
    72    29    28    1
    73   108   107    2
    74   100    99    1
    75   109   111    1
    76   109   106    1
    77    99   102    1
    78    27    25   ar
    79   105   106    1
    80   106   107    1
    81    25    26   ar
    82    25    24    1
    83   102   104    1
    84   102   103    1
    85    23    22    2
    86    24    21    1
    87    22    21    1
    88    21    20    1
    89    19    17    1
    90    15    14    2
    91    10     9    1
    92    16    17    1
    93    16    13    1
    94    17    18    1
    95    11     9    1
    96    12    13    1
    97    14    13    1
    98     9     8    2
    99     8     7    1
   100     7     6    1
   101     6     5    1
   102     5     2    1
   103     2     3    1
   104     2     1    1
   105     3     4    2
