@<TRIPOS>MOLECULE
tmp/2qi4B00.pdb
 112 105 0 0 0
SMALL
GASTEIGER

@<TRIPOS>ATOM
      1  N         19.3640   17.0310   15.0040 N.3     8  ARG8       -0.1245
      2  CA        18.6290   18.2250   15.4080 C.3     8  ARG8        0.1563
      3  C         17.6040   17.8790   16.4880 C.2     8  ARG8        0.2260
      4  O         16.8840   16.8760   16.3640 O.2     8  ARG8       -0.2867
      5  CB        17.9210   18.8450   14.2150 C.3     8  ARG8        0.0307
      6  CG        18.8460   19.4110   13.1750 C.3     8  ARG8        0.0489
      7  CD        18.0580   20.2460   12.1880 C.3     8  ARG8        0.2205
      8  NE        18.9050   20.8360   11.1600 N.pl3   8  ARG8       -0.0865
      9  CZ        18.6220   21.9540   10.4850 C.cat   8  ARG8        0.5346
     10  NH1       17.5050   22.6450   10.7380 N.pl3   8  ARG8        0.1354
     11  NH2       19.4640   22.3960    9.5520 N.pl3   8  ARG8        0.1354
     12  N         12.4450   23.0540   16.7190 N.3    23  LEU23      -0.1245
     13  CA        13.7530   22.9220   17.3510 C.3    23  LEU23       0.1561
     14  C         13.7330   23.4560   18.7600 C.2    23  LEU23       0.2260
     15  O         13.2800   24.5670   18.9870 O.2    23  LEU23      -0.2867
     16  CB        14.8100   23.7560   16.6290 C.3    23  LEU23       0.0270
     17  CG        15.4180   23.3110   15.3240 C.3    23  LEU23       0.0019
     18  CD1       16.3740   24.4010   14.8570 C.3    23  LEU23       0.0001
     19  CD2       16.1340   22.0010   15.4760 C.3    23  LEU23       0.0001
     20  N         15.8450   25.2760   20.9120 N.3    25  ASP25      -0.1239
     21  CA        16.9600   26.0960   20.4700 C.3    25  ASP25       0.1674
     22  C         17.4580   27.0630   21.5470 C.2    25  ASP25       0.2266
     23  O         16.8990   28.1520   21.7710 O.2    25  ASP25      -0.2867
     24  CB        16.5920   26.8340   19.1820 C.3    25  ASP25       0.1410
     25  CG        17.7930   27.5040   18.5270 C.2    25  ASP25       0.3668
     26  OD1       17.6250   28.0650   17.4320 O.co2  25  ASP25      -0.2456
     27  OD2       18.9100   27.4550   19.0910 O.co2  25  ASP25      -0.2456
     28  N         20.0510   28.7890   21.4000 N.3    27  GLY27      -0.1210
     29  CA        20.5820   29.9880   20.7480 C.3    27  GLY27       0.1956
     30  C         19.5640   31.0610   20.3700 C.2    27  GLY27       0.2612
     31  O         19.9460   32.1520   19.9460 O.2    27  GLY27      -0.2717
     32  N         18.2820   30.7370   20.5440 N.am   28  ALA28      -0.1965
     33  CA        17.1560   31.5970   20.1830 C.3    28  ALA28       0.1728
     34  C         16.6130   32.3070   21.4180 C.2    28  ALA28       0.2616
     35  O         16.1410   31.6500   22.3520 O.2    28  ALA28      -0.2715
     36  CB        16.0590   30.7480   19.5500 C.3    28  ALA28       0.0334
     37  N         16.6840   33.6380   21.4460 N.am   29  ASP29      -0.1957
     38  CA        16.0970   34.3940   22.5640 C.3    29  ASP29       0.1840
     39  C         14.5850   34.2080   22.6000 C.2    29  ASP29       0.2622
     40  O         13.9870   34.0170   23.6720 O.2    29  ASP29      -0.2715
     41  CB        16.3550   35.8860   22.4320 C.3    29  ASP29       0.1450
     42  CG        17.8150   36.2450   22.4680 C.2    29  ASP29       0.3671
     43  OD1       18.6460   35.4600   22.9730 O.co2  29  ASP29      -0.2456
     44  OD2       18.1180   37.3550   21.9990 O.co2  29  ASP29      -0.2456
     45  N         13.9930   34.2780   21.4110 N.am   30  ASP30      -0.1971
     46  CA        12.5530   34.2610   21.2070 C.3    30  ASP30       0.1709
     47  C         12.1340   33.0090   20.4340 C.2    30  ASP30       0.2293
     48  O         12.9580   32.3100   19.8360 O.2    30  ASP30      -0.2864
     49  CB        12.1200   35.5180   20.4330 C.3    30  ASP30       0.1436
     50  CG        12.5210   36.8210   21.1330 C.2    30  ASP30       0.3671
     51  OD1       12.5770   36.8460   22.3800 O.co2  30  ASP30      -0.2456
     52  OD2       12.7570   37.8360   20.4350 O.co2  30  ASP30      -0.2456
     53  N         10.1510   31.4480   17.3400 N.3    32  VAL32      -0.1245
     54  CA         9.8350   31.8520   15.9710 C.3    32  VAL32       0.1561
     55  C          9.1570   30.6840   15.2490 C.2    32  VAL32       0.2260
     56  O          9.7360   29.5990   15.1040 O.2    32  VAL32      -0.2867
     57  CB        11.0900   32.2880   15.1880 C.3    32  VAL32       0.0252
     58  CG1       10.6920   33.0120   13.8990 C.3    32  VAL32       0.0019
     59  CG2       11.9950   33.1790   16.0430 C.3    32  VAL32       0.0019
     60  N         13.8100   40.4460   13.2970 N.3    47  ILE47      -0.1231
     61  CA        14.7810   39.6540   14.0540 C.3    47  ILE47       0.1692
     62  C         15.9060   39.2210   13.1490 C.2    47  ILE47       0.2593
     63  O         15.7000   38.9420   11.9600 O.2    47  ILE47      -0.2718
     64  CB        14.1600   38.4460   14.7780 C.3    47  ILE47       0.0266
     65  CG1       13.4230   37.5240   13.8090 C.3    47  ILE47       0.0019
     66  CG2       13.2390   38.9460   15.8840 C.3    47  ILE47       0.0020
     67  CD1       13.1190   36.1580   14.4100 C.3    47  ILE47       0.0001
     68  N         17.1020   39.2060   13.7250 N.am   48  GLY48      -0.1942
     69  CA        18.3140   38.9730   12.9710 C.3    48  GLY48       0.2014
     70  C         18.9830   37.6560   13.2980 C.2    48  GLY48       0.2639
     71  O         18.9860   37.2050   14.4440 O.2    48  GLY48      -0.2714
     72  N         19.5710   37.0530   12.2750 N.am   49  GLY49      -0.1939
     73  CA        20.3840   35.8520   12.4490 C.3    49  GLY49       0.2014
     74  C         21.3950   35.7370   11.3280 C.2    49  GLY49       0.2638
     75  O         21.7250   36.7320   10.6830 O.2    49  GLY49      -0.2714
     76  N         21.9020   34.5270   11.1020 N.am   50  ILE50      -0.1977
     77  CA        22.8290   34.2970   10.0010 C.3    50  ILE50       0.1596
     78  C         22.1070   34.6070    8.6920 C.2    50  ILE50       0.2287
     79  O         21.0100   34.1180    8.4690 O.2    50  ILE50      -0.2864
     80  CB        23.3890   32.8570   10.0240 C.3    50  ILE50       0.0276
     81  CG1       24.4420   32.7380   11.1360 C.3    50  ILE50       0.0022
     82  CG2       24.0100   32.4810    8.6750 C.3    50  ILE50       0.0022
     83  CD1       24.8090   31.3210   11.4950 C.3    50  ILE50       0.0001
     84  N         10.3240   31.9090    8.5910 N.3    80  THR80      -0.1204
     85  CA        11.4480   31.0940    9.0320 C.3    80  THR80       0.1979
     86  C         11.3770   29.7230    8.3410 C.2    80  THR80       0.2460
     87  O         10.2870   29.1870    8.1280 O.2    80  THR80      -0.2732
     88  CB        11.4910   30.9360   10.5770 C.3    80  THR80       0.1783
     89  OG1       12.5460   30.0360   10.9380 O.3    80  THR80      -0.2211
     90  CG2       10.1670   30.3950   11.1410 C.3    80  THR80       0.0376
     91  N         12.5410   29.1530    7.9820 N.am   81  PRO81      -0.2717
     92  CA        12.5700   27.8120    7.3930 C.3    81  PRO81       0.1535
     93  C         12.2830   26.6830    8.3810 C.2    81  PRO81       0.2598
     94  O         11.9810   25.5670    7.9650 O.2    81  PRO81      -0.2715
     95  CB        14.0010   27.6880    6.8640 C.3    81  PRO81       0.0310
     96  CG        14.7970   28.6440    7.6550 C.3    81  PRO81       0.0237
     97  CD        13.8880   29.7400    8.0960 C.3    81  PRO81       0.0939
     98  N         12.4000   26.9740    9.6690 N.am   82  VAL82      -0.1978
     99  CA        12.1540   25.9860   10.7100 C.3    82  VAL82       0.1596
    100  C         11.4660   26.6220   11.9080 C.2    82  VAL82       0.2287
    101  O         11.7010   27.7940   12.2250 O.2    82  VAL82      -0.2864
    102  CB        13.4690   25.3110   11.1640 C.3    82  VAL82       0.0276
    103  CG1       14.0160   24.4210   10.0610 C.3    82  VAL82       0.0022
    104  CG2       14.5060   26.3480   11.5850 C.3    82  VAL82       0.0022
    105  N         11.1290   27.2680   15.7130 N.3    84  ILE84      -0.1245
    106  CA        12.1840   27.4520   16.6960 C.3    84  ILE84       0.1561
    107  C         11.5580   27.7480   18.0560 C.2    84  ILE84       0.2260
    108  O         10.8560   28.7610   18.2160 O.2    84  ILE84      -0.2867
    109  CB        13.1060   28.6210   16.2890 C.3    84  ILE84       0.0252
    110  CG1       13.8780   28.2690   15.0190 C.3    84  ILE84       0.0019
    111  CG2       14.0950   28.9790   17.4120 C.3    84  ILE84       0.0019
    112  CD1       14.4810   29.4560   14.3230 C.3    84  ILE84       0.0001
@<TRIPOS>BOND
     1    95    92    1
     2    95    96    1
     3    92    91    1
     4    92    93    1
     5    96    97    1
     6    94    93    2
     7    91    97    1
     8    91    86   am
     9    87    86    2
    10    86    85    1
    11    93    98   am
    12    79    78    2
    13    84    85    1
    14    82    80    1
    15    78    77    1
    16    85    88    1
    17    11     9    1
    18    98    99    1
    19    77    80    1
    20    77    76    1
    21    80    81    1
    22   103   102    1
    23     9    10    1
    24     9     8    2
    25    88    89    1
    26    88    90    1
    27    75    74    2
    28    99   102    1
    29    99   100    1
    30    76    74   am
    31    81    83    1
    32     8     7    1
    33   102   104    1
    34    74    73    1
    35   100   101    2
    36    63    62    2
    37     7     6    1
    38    72    73    1
    39    72    70   am
    40    69    70    1
    41    69    68    1
    42    62    68   am
    43    62    61    1
    44     6     5    1
    45    60    61    1
    46    70    71    2
    47    65    67    1
    48    65    64    1
    49    58    57    1
    50    61    64    1
    51     5     2    1
    52   112   110    1
    53    64    66    1
    54    18    17    1
    55     1     2    1
    56   110   109    1
    57    56    55    2
    58    57    54    1
    59    57    59    1
    60    55    54    1
    61    17    19    1
    62    17    16    1
    63     2     3    1
    64   105   106    1
    65    54    53    1
    66   109   106    1
    67   109   111    1
    68     4     3    2
    69    16    13    1
    70   106   107    1
    71    12    13    1
    72    13    14    1
    73    26    25   ar
    74   107   108    2
    75    25    27   ar
    76    25    24    1
    77    14    15    2
    78    24    21    1
    79    36    33    1
    80    48    47    2
    81    31    30    2
    82    33    32    1
    83    33    34    1
    84    30    32   am
    85    30    29    1
    86    49    50    1
    87    49    46    1
    88    47    46    1
    89    52    50   ar
    90    21    20    1
    91    21    22    1
    92    29    28    1
    93    50    51   ar
    94    46    45    1
    95    45    39   am
    96    34    37   am
    97    34    35    2
    98    37    38    1
    99    22    23    2
   100    44    42   ar
   101    41    42    1
   102    41    38    1
   103    42    43   ar
   104    38    39    1
   105    39    40    2
