@<TRIPOS>MOLECULE
tmp/2qi7A00.pdb
 112 105 0 0 0
SMALL
GASTEIGER

@<TRIPOS>ATOM
      1  N         21.0320   34.0650   28.1830 N.3     8  ARG8       -0.1245
      2  CA        21.7380   33.4190   27.0670 C.3     8  ARG8        0.1563
      3  C         22.8560   32.5270   27.6070 C.2     8  ARG8        0.2260
      4  O         23.6540   32.9770   28.4410 O.2     8  ARG8       -0.2867
      5  CB        22.3660   34.4500   26.1310 C.3     8  ARG8        0.0307
      6  CG        21.3820   35.2120   25.2880 C.3     8  ARG8        0.0489
      7  CD        22.1160   36.2360   24.4510 C.3     8  ARG8        0.2205
      8  NE        21.2480   37.3010   23.9560 N.pl3   8  ARG8       -0.0865
      9  CZ        21.0530   37.6240   22.6750 C.cat   8  ARG8        0.5346
     10  NH1       21.6400   36.9440   21.6740 N.pl3   8  ARG8        0.1354
     11  NH2       20.2420   38.6400   22.3860 N.pl3   8  ARG8        0.1354
     12  N         28.0670   31.3740   22.2190 N.3    23  LEU23      -0.1245
     13  CA        26.7290   30.9670   22.5960 C.3    23  LEU23       0.1561
     14  C         26.5270   29.4790   22.3250 C.2    23  LEU23       0.2260
     15  O         26.7460   29.0040   21.2010 O.2    23  LEU23      -0.2867
     16  CB        25.7260   31.7910   21.7910 C.3    23  LEU23       0.0270
     17  CG        24.2420   31.5710   22.0620 C.3    23  LEU23       0.0019
     18  CD1       23.8310   32.1660   23.3700 C.3    23  LEU23       0.0001
     19  CD2       23.4330   32.1730   20.9060 C.3    23  LEU23       0.0001
     20  N         24.4530   26.7410   21.2510 N.3    25  ASP25      -0.1239
     21  CA        23.3650   26.9270   20.3250 C.3    25  ASP25       0.1674
     22  C         22.9020   25.5800   19.7660 C.2    25  ASP25       0.2266
     23  O         23.3950   25.1060   18.7520 O.2    25  ASP25      -0.2867
     24  CB        23.8410   27.8780   19.2100 C.3    25  ASP25       0.1410
     25  CG        22.7340   28.2940   18.2830 C.2    25  ASP25       0.3668
     26  OD1       21.6210   27.7000   18.3510 O.co2  25  ASP25      -0.2456
     27  OD2       22.9840   29.2240   17.4860 O.co2  25  ASP25      -0.2456
     28  N         20.2370   24.8570   18.2720 N.3    27  GLY27      -0.1210
     29  CA        19.6120   25.0390   16.9590 C.3    27  GLY27       0.1956
     30  C         20.5860   25.1860   15.8030 C.2    27  GLY27       0.2612
     31  O         20.1630   25.3050   14.6480 O.2    27  GLY27      -0.2717
     32  N         21.8850   25.1580   16.1040 N.am   28  ALA28      -0.1965
     33  CA        22.9250   25.2500   15.0840 C.3    28  ALA28       0.1728
     34  C         23.5950   23.8920   14.8390 C.2    28  ALA28       0.2616
     35  O         24.1130   23.2690   15.7680 O.2    28  ALA28      -0.2715
     36  CB        23.9550   26.3010   15.4800 C.3    28  ALA28       0.0334
     37  N         23.5840   23.4420   13.5820 N.am   29  ASP29      -0.1957
     38  CA        24.2980   22.2170   13.2010 C.3    29  ASP29       0.1840
     39  C         25.8070   22.4030   13.3730 C.2    29  ASP29       0.2622
     40  O         26.5340   21.4780   13.7720 O.2    29  ASP29      -0.2715
     41  CB        24.0710   21.8660   11.7290 C.3    29  ASP29       0.1450
     42  CG        22.6340   21.5150   11.3900 C.2    29  ASP29       0.3671
     43  OD1       21.7560   21.3510   12.2670 O.co2  29  ASP29      -0.2456
     44  OD2       22.3970   21.3760   10.1790 O.co2  29  ASP29      -0.2456
     45  N         26.2710   23.5960   13.0240 N.am   30  ASP30      -0.1971
     46  CA        27.6880   23.8660   12.8920 C.3    30  ASP30       0.1709
     47  C         28.1290   24.9470   13.8530 C.2    30  ASP30       0.2293
     48  O         27.3310   25.7900   14.2730 O.2    30  ASP30      -0.2864
     49  CB        27.9950   24.3300   11.4610 C.3    30  ASP30       0.1436
     50  CG        27.6890   23.2750   10.4170 C.2    30  ASP30       0.3671
     51  OD1       27.7230   22.0720   10.7380 O.co2  30  ASP30      -0.2456
     52  OD2       27.4230   23.6630    9.2570 O.co2  30  ASP30      -0.2456
     53  N         30.0740   28.3320   14.3210 N.3    32  VAL32      -0.1245
     54  CA        30.3720   29.4860   13.4780 C.3    32  VAL32       0.1561
     55  C         30.8920   30.6370   14.3320 C.2    32  VAL32       0.2260
     56  O         30.2010   31.1120   15.2340 O.2    32  VAL32      -0.2867
     57  CB        29.1440   29.9460   12.6700 C.3    32  VAL32       0.0252
     58  CG1       29.5950   30.8220   11.5040 C.3    32  VAL32       0.0019
     59  CG2       28.3670   28.7570   12.1410 C.3    32  VAL32       0.0019
     60  N         26.6440   28.5320    4.1220 N.3    47  ILE47      -0.1231
     61  CA        25.6810   28.0060    5.0840 C.3    47  ILE47       0.1692
     62  C         24.4840   28.9330    5.1910 C.2    47  ILE47       0.2593
     63  O         24.5880   30.1370    4.9130 O.2    47  ILE47      -0.2718
     64  CB        26.2970   27.7920    6.4820 C.3    47  ILE47       0.0266
     65  CG1       26.7720   29.1140    7.1030 C.3    47  ILE47       0.0019
     66  CG2       27.4540   26.7990    6.3990 C.3    47  ILE47       0.0020
     67  CD1       27.2050   28.9730    8.5490 C.3    47  ILE47       0.0001
     68  N         23.3600   28.3620    5.6150 N.am   48  GLY48      -0.1942
     69  CA        22.0960   29.0950    5.7010 C.3    48  GLY48       0.2014
     70  C         21.5880   29.2480    7.1180 C.2    48  GLY48       0.2639
     71  O         21.7420   28.3570    7.9440 O.2    48  GLY48      -0.2714
     72  N         20.9860   30.3980    7.3940 N.am   49  GLY49      -0.1939
     73  CA        20.3700   30.6740    8.6870 C.3    49  GLY49       0.2014
     74  C         18.9880   31.2400    8.4560 C.2    49  GLY49       0.2638
     75  O         18.3900   31.0480    7.3800 O.2    49  GLY49      -0.2714
     76  N         18.4830   31.9540    9.4550 N.am   50  ILE50      -0.1977
     77  CA        17.1180   32.4390    9.4120 C.3    50  ILE50       0.1596
     78  C         16.9650   33.5000    8.3230 C.2    50  ILE50       0.2287
     79  O         15.9000   33.6170    7.6980 O.2    50  ILE50      -0.2864
     80  CB        16.6650   32.9760   10.8060 C.3    50  ILE50       0.0276
     81  CG1       15.1530   32.7950   10.9630 C.3    50  ILE50       0.0022
     82  CG2       17.1100   34.4210   11.0080 C.3    50  ILE50       0.0022
     83  CD1       14.6130   33.1700   12.3200 C.3    50  ILE50       0.0001
     84  N         28.6270   35.6060   11.0100 N.3    80  THR80      -0.1204
     85  CA        27.6000   35.2540   11.9690 C.3    80  THR80       0.1979
     86  C         27.3840   36.4510   12.8930 C.2    80  THR80       0.2460
     87  O         28.3410   37.1530   13.2360 O.2    80  THR80      -0.2732
     88  CB        27.9850   34.0010   12.8020 C.3    80  THR80       0.1783
     89  OG1       27.0160   33.7920   13.8320 O.3    80  THR80      -0.2211
     90  CG2       29.3610   34.1330   13.4280 C.3    80  THR80       0.0376
     91  N         26.1340   36.6940   13.3100 N.am   81  PRO81      -0.2717
     92  CA        25.8970   37.7950   14.2680 C.3    81  PRO81       0.1535
     93  C         26.5850   37.6550   15.6270 C.2    81  PRO81       0.2598
     94  O         26.8500   38.6560   16.2850 O.2    81  PRO81      -0.2715
     95  CB        24.3690   37.8090   14.4450 C.3    81  PRO81       0.0310
     96  CG        23.8810   36.5070   13.8950 C.3    81  PRO81       0.0237
     97  CD        24.8870   36.0030   12.9200 C.3    81  PRO81       0.0939
     98  N         26.8450   36.4210   16.0440 N.am   82  VAL82      -0.1978
     99  CA        27.5250   36.1340   17.3050 C.3    82  VAL82       0.1596
    100  C         28.2640   34.8150   17.1480 C.2    82  VAL82       0.2287
    101  O         27.8640   33.9760   16.3370 O.2    82  VAL82      -0.2864
    102  CB        26.5180   36.0400   18.4800 C.3    82  VAL82       0.0276
    103  CG1       25.5720   34.8770   18.3000 C.3    82  VAL82       0.0022
    104  CG2       27.2220   35.9330   19.8270 C.3    82  VAL82       0.0022
    105  N         28.8540   31.1910   17.7980 N.3    84  ILE84      -0.1245
    106  CA        27.9640   30.1220   18.2170 C.3    84  ILE84       0.1561
    107  C         28.6620   28.7730   18.2010 C.2    84  ILE84       0.2260
    108  O         29.3920   28.4420   17.2750 O.2    84  ILE84      -0.2867
    109  CB        26.6630   30.0520   17.3700 C.3    84  ILE84       0.0252
    110  CG1       26.9500   29.6780   15.9070 C.3    84  ILE84       0.0019
    111  CG2       25.8900   31.3570   17.4870 C.3    84  ILE84       0.0019
    112  CD1       25.7090   29.7170   15.0050 C.3    84  ILE84       0.0001
@<TRIPOS>BOND
     1    60    61    1
     2    63    62    2
     3    61    62    1
     4    61    64    1
     5    62    68   am
     6    68    69    1
     7    69    70    1
     8    66    64    1
     9    64    65    1
    10    65    67    1
    11    70    72   am
    12    70    71    2
    13    75    74    2
    14    72    73    1
    15    79    78    2
    16    78    77    1
    17    74    73    1
    18    74    76   am
    19    52    50   ar
    20    77    76    1
    21    77    80    1
    22    44    42   ar
    23    50    51   ar
    24    50    49    1
    25    80    81    1
    26    80    82    1
    27    81    83    1
    28    84    85    1
    29    42    41    1
    30    42    43   ar
    31    49    46    1
    32    58    57    1
    33    41    38    1
    34    85    88    1
    35    85    86    1
    36    59    57    1
    37    57    54    1
    38    88    90    1
    39    88    89    1
    40    46    45    1
    41    46    47    1
    42    86    87    2
    43    86    91   am
    44    97    91    1
    45    97    96    1
    46    45    39   am
    47    38    39    1
    48    38    37    1
    49    91    92    1
    50    39    40    2
    51    54    53    1
    52    54    55    1
    53    37    34   am
    54    47    48    2
    55    96    95    1
    56    92    95    1
    57    92    93    1
    58    55    56    2
    59    31    30    2
    60    34    33    1
    61    34    35    2
    62   112   110    1
    63    33    36    1
    64    33    32    1
    65    93    98   am
    66    93    94    2
    67    30    32   am
    68    30    29    1
    69   110   109    1
    70    98    99    1
    71   101   100    2
    72    29    28    1
    73   100    99    1
    74   108   107    2
    75    99   102    1
    76   109   111    1
    77   109   106    1
    78    27    25   ar
    79   105   106    1
    80   107   106    1
    81    25    26   ar
    82    25    24    1
    83   103   102    1
    84   102   104    1
    85    23    22    2
    86    24    21    1
    87    22    21    1
    88    21    20    1
    89    19    17    1
    90    15    14    2
    91    10     9    1
    92    16    17    1
    93    16    13    1
    94    17    18    1
    95    12    13    1
    96    14    13    1
    97    11     9    1
    98     9     8    2
    99     8     7    1
   100     7     6    1
   101     6     5    1
   102     5     2    1
   103     2     3    1
   104     2     1    1
   105     3     4    2
