@<TRIPOS>MOLECULE
tmp/2qiaA00.pdb
 179 178 0 0 0
SMALL
GASTEIGER

@<TRIPOS>ATOM
      1  N          6.0410   -6.6930   15.5910 N.3    73  GLN73      -0.1231
      2  CA         7.4490   -6.6730   15.1990 C.3    73  GLN73       0.1698
      3  C          8.3970   -7.0650   16.3380 C.2    73  GLN73       0.2592
      4  O          9.6210   -6.9890   16.1980 O.2    73  GLN73      -0.2718
      5  CB         7.8100   -5.3020   14.6210 C.3    73  GLN73       0.0381
      6  CG         7.0130   -4.9670   13.3640 C.3    73  GLN73       0.0905
      7  CD         7.3640   -3.6150   12.7680 C.2    73  GLN73       0.2608
      8  OE1        7.6420   -3.5140   11.5730 O.2    73  GLN73      -0.2717
      9  NE2        7.3370   -2.5670   13.5940 N.am   73  GLN73      -0.0878
     10  N          7.8180   -7.4950   17.4590 N.am   74  ASP74      -0.1960
     11  CA         8.5890   -7.9760   18.5950 C.3    74  ASP74       0.1840
     12  C          9.1460   -9.3620   18.2660 C.2    74  ASP74       0.2622
     13  O          8.3870  -10.2940   17.9970 O.2    74  ASP74      -0.2715
     14  CB         7.7010   -8.0260   19.8480 C.3    74  ASP74       0.1450
     15  CG         8.4730   -8.3500   21.1240 C.2    74  ASP74       0.3671
     16  OD1        9.6780   -8.6810   21.0660 O.co2  74  ASP74      -0.2456
     17  OD2        7.8550   -8.2620   22.2070 O.co2  74  ASP74      -0.2456
     18  N         10.4710   -9.4850   18.2830 N.am   75  LEU75      -0.1963
     19  CA        11.1440  -10.7640   18.0240 C.3    75  LEU75       0.1728
     20  C         10.7300  -11.8740   18.9970 C.2    75  LEU75       0.2616
     21  O         10.8970  -13.0640   18.7030 O.2    75  LEU75      -0.2715
     22  CB        12.6650  -10.5850   18.0350 C.3    75  LEU75       0.0311
     23  CG        13.2740   -9.7270   16.9180 C.3    75  LEU75       0.0022
     24  CD1       14.7340   -9.4010   17.2030 C.3    75  LEU75       0.0001
     25  CD2       13.1370  -10.3960   15.5550 C.3    75  LEU75       0.0001
     26  N         10.1820  -11.4760   20.1440 N.am   76  LYS76      -0.1977
     27  CA         9.7030  -12.4230   21.1550 C.3    76  LYS76       0.1596
     28  C          8.4040  -13.1180   20.7460 C.2    76  LYS76       0.2287
     29  O          8.1100  -14.2220   21.2220 O.2    76  LYS76      -0.2864
     30  CB         9.5110  -11.7220   22.4990 C.3    76  LYS76       0.0298
     31  CG        10.8110  -11.2880   23.1650 C.3    76  LYS76       0.0038
     32  CD        10.5810  -10.7430   24.5760 C.3    76  LYS76       0.0206
     33  CE         9.8250   -9.4180   24.5860 C.3    76  LYS76       0.1093
     34  NZ        10.5040   -8.3590   23.7800 N.3    76  LYS76      -0.1314
     35  N         -0.7500   -3.3080   15.2890 N.3    99  HIS99      -0.1241
     36  CA        -0.3160   -4.6900   15.4310 C.3    99  HIS99       0.1621
     37  C         -0.8960   -5.3770   16.6540 C.2    99  HIS99       0.2264
     38  O         -1.1920   -4.7310   17.6580 O.2    99  HIS99      -0.2867
     39  CB         1.2040   -4.7580   15.4600 C.3    99  HIS99       0.0745
     40  CG         1.8380   -4.5460   14.1230 C.ar   99  HIS99       0.0817
     41  ND1        3.1980   -4.4020   13.9610 N.ar   99  HIS99      -0.2268
     42  CD2        1.2990   -4.4590   12.8830 C.ar   99  HIS99       0.1154
     43  CE1        3.4740   -4.2600   12.6770 C.ar   99  HIS99       0.1986
     44  NE2        2.3380   -4.2800   12.0010 N.ar   99  HIS99      -0.2212
     45  N          1.8850    4.4290   13.6640 N.3   122  HIS122     -0.1241
     46  CA         2.1500    3.0440   14.0390 C.3   122  HIS122      0.1621
     47  C          1.7800    2.7910   15.4850 C.2   122  HIS122      0.2264
     48  O          2.2830    3.4650   16.3850 O.2   122  HIS122     -0.2867
     49  CB         3.6130    2.6720   13.7970 C.3   122  HIS122      0.0745
     50  CG         3.9890    1.3200   14.3300 C.ar  122  HIS122      0.0817
     51  ND1        3.5930    0.1440   13.7280 N.ar  122  HIS122     -0.2268
     52  CD2        4.7260    0.9590   15.4080 C.ar  122  HIS122      0.1154
     53  CE1        4.0740   -0.8820   14.4090 C.ar  122  HIS122      0.1986
     54  NE2        4.7680   -0.4150   15.4320 N.ar  122  HIS122     -0.2212
     55  N          2.1620   -0.1350   17.9430 N.3   124  ALA124     -0.1231
     56  CA         2.8470   -1.4120   18.1760 C.3   124  ALA124      0.1694
     57  C          2.0580   -2.3430   19.0940 C.2   124  ALA124      0.2592
     58  O          1.0640   -1.9420   19.6980 O.2   124  ALA124     -0.2718
     59  CB         4.2260   -1.1600   18.7630 C.3   124  ALA124      0.0304
     60  N          2.5160   -3.5900   19.1820 N.am  125  HIS125     -0.1976
     61  CA         1.9620   -4.5730   20.1160 C.3   125  HIS125      0.1656
     62  C          1.7970   -4.0040   21.5220 C.2   125  HIS125      0.2291
     63  O          2.6610   -3.2600   22.0060 O.2   125  HIS125     -0.2864
     64  CB         2.8840   -5.7900   20.1900 C.3   125  HIS125      0.0771
     65  CG         4.2610   -5.4750   20.6870 C.ar  125  HIS125      0.0820
     66  ND1        4.6410   -5.6710   21.9960 N.ar  125  HIS125     -0.2267
     67  CD2        5.3430   -4.9660   20.0520 C.ar  125  HIS125      0.1154
     68  CE1        5.9010   -5.3060   22.1460 C.ar  125  HIS125      0.1986
     69  NE2        6.3510   -4.8770   20.9810 N.ar  125  HIS125     -0.2212
     70  N          4.9560    7.3420   15.8340 N.3   140  THR140     -0.1203
     71  CA         5.3590    5.9540   15.9940 C.3   140  THR140      0.1994
     72  C          5.4540    5.5630   17.4640 C.2   140  THR140      0.2618
     73  O          6.2810    6.0940   18.2070 O.2   140  THR140     -0.2717
     74  CB         6.7050    5.7070   15.2820 C.3   140  THR140      0.1784
     75  OG1        6.5760    6.0530   13.8980 O.3   140  THR140     -0.2211
     76  CG2        7.1550    4.2470   15.4010 C.3   140  THR140      0.0376
     77  N          4.6080    4.6210   17.8670 N.am  141  LEU141     -0.1965
     78  CA         4.6440    4.0980   19.2260 C.3   141  LEU141      0.1728
     79  C          5.3700    2.7610   19.2330 C.2   141  LEU141      0.2616
     80  O          5.0190    1.8590   18.4720 O.2   141  LEU141     -0.2715
     81  CB         3.2260    3.9200   19.7780 C.3   141  LEU141      0.0311
     82  CG         2.2050    5.0490   19.5950 C.3   141  LEU141      0.0022
     83  CD1        0.8660    4.6410   20.2050 C.3   141  LEU141      0.0001
     84  CD2        2.6990    6.3770   20.1720 C.3   141  LEU141      0.0001
     85  N          6.3890    2.6400   20.0800 N.am  142  ALA142     -0.1963
     86  CA         7.0200    1.3450   20.3150 C.3   142  ALA142      0.1728
     87  C          6.0800    0.4990   21.1720 C.2   142  ALA142      0.2617
     88  O          4.9890    0.9510   21.5320 O.2   142  ALA142     -0.2715
     89  CB         8.3740    1.5170   20.9880 C.3   142  ALA142      0.0334
     90  N          6.4850   -0.7290   21.4830 N.am  143  GLY143     -0.1940
     91  CA         5.6370   -1.6410   22.2570 C.3   143  GLY143      0.2014
     92  C          5.2320   -1.1270   23.6280 C.2   143  GLY143      0.2638
     93  O          5.9870   -0.3990   24.2770 O.2   143  GLY143     -0.2714
     94  N          4.0270   -1.5030   24.0520 N.am  144  HIS144     -0.1973
     95  CA         3.5300   -1.2820   25.4220 C.3   144  HIS144      0.1656
     96  C          3.3470    0.1930   25.8130 C.2   144  HIS144      0.2291
     97  O          3.3630    0.5270   27.0020 O.2   144  HIS144     -0.2864
     98  CB         4.4230   -1.9680   26.4770 C.3   144  HIS144      0.0771
     99  CG         5.0380   -3.2640   26.0370 C.ar  144  HIS144      0.0820
    100  ND1        4.4440   -4.4880   26.2620 N.ar  144  HIS144     -0.2267
    101  CD2        6.2230   -3.5280   25.4330 C.ar  144  HIS144      0.1154
    102  CE1        5.2210   -5.4470   25.7920 C.ar  144  HIS144      0.1986
    103  NE2        6.3100   -4.8920   25.2890 N.ar  144  HIS144     -0.2212
    104  N          8.3800    9.9220   17.6770 N.3   158  ALA158     -0.1231
    105  CA         8.4050    8.5330   18.1280 C.3   158  ALA158      0.1694
    106  C          8.3950    8.4620   19.6500 C.2   158  ALA158      0.2592
    107  O          8.9280    9.3520   20.3240 O.2   158  ALA158     -0.2718
    108  CB         9.6160    7.8060   17.5650 C.3   158  ALA158      0.0304
    109  N          7.7800    7.4050   20.1800 N.am  159  VAL159     -0.1966
    110  CA         7.6730    7.1920   21.6260 C.3   159  VAL159      0.1727
    111  C          8.3240    5.8600   22.0300 C.2   159  VAL159      0.2616
    112  O          7.9560    4.7980   21.5160 O.2   159  VAL159     -0.2715
    113  CB         6.1960    7.2270   22.0980 C.3   159  VAL159      0.0290
    114  CG1        6.1040    7.0380   23.6050 C.3   159  VAL159      0.0023
    115  CG2        5.5220    8.5410   21.6820 C.3   159  VAL159      0.0023
    116  N          9.2840    5.9400   22.9520 N.am  160  HIS160     -0.1959
    117  CA        10.0270    4.7790   23.4600 C.3   160  HIS160      0.1787
    118  C          9.1020    3.7690   24.1400 C.2   160  HIS160      0.2620
    119  O          8.1070    4.1460   24.7610 O.2   160  HIS160     -0.2715
    120  CB        11.0980    5.2570   24.4540 C.3   160  HIS160      0.0785
    121  CG        12.0550    4.1910   24.8900 C.ar  160  HIS160      0.0821
    122  ND1       11.7320    3.2370   25.8320 N.ar  160  HIS160     -0.2267
    123  CD2       13.3410    3.9500   24.5380 C.ar  160  HIS160      0.1154
    124  CE1       12.7720    2.4460   26.0290 C.ar  160  HIS160      0.1986
    125  NE2       13.7590    2.8550   25.2550 N.ar  160  HIS160     -0.2212
    126  N          9.4410    2.4840   24.0370 N.am  161  GLN161     -0.1963
    127  CA         8.6080    1.4250   24.6140 C.3   161  GLN161      0.1733
    128  C          8.3200    1.6320   26.1060 C.2   161  GLN161      0.2616
    129  O          9.1650    2.1540   26.8360 O.2   161  GLN161     -0.2715
    130  CB         9.2150    0.0330   24.3560 C.3   161  GLN161      0.0408
    131  CG        10.6450   -0.1630   24.8620 C.3   161  GLN161      0.0908
    132  CD        11.7160    0.1110   23.8120 C.2   161  GLN161      0.2608
    133  OE1       11.6230    1.0530   23.0130 O.2   161  GLN161     -0.2717
    134  NE2       12.7540   -0.7120   23.8220 N.am  161  GLN161     -0.0878
    135  N          7.1140    1.2410   26.5230 N.am  162  PHE162     -0.1974
    136  CA         6.6350    1.3130   27.9170 C.3   162  PHE162      0.1639
    137  C          6.2430    2.7080   28.4220 C.2   162  PHE162      0.2290
    138  O          5.7420    2.8400   29.5380 O.2   162  PHE162     -0.2864
    139  CB         7.6210    0.6480   28.8980 C.3   162  PHE162      0.0560
    140  CG         7.8280   -0.8210   28.6470 C.ar  162  PHE162     -0.0200
    141  CD1        6.8800   -1.7500   29.0610 C.ar  162  PHE162     -0.0042
    142  CD2        8.9730   -1.2700   27.9990 C.ar  162  PHE162     -0.0042
    143  CE1        7.0670   -3.1160   28.8270 C.ar  162  PHE162     -0.0003
    144  CE2        9.1690   -2.6340   27.7620 C.ar  162  PHE162     -0.0003
    145  CZ         8.2140   -3.5520   28.1790 C.ar  162  PHE162     -0.0000
    146  N         11.2510   13.0460   20.1630 N.3   176  GLY176     -0.1210
    147  CA        11.5370   11.6800   20.5810 C.3   176  GLY176      0.1956
    148  C         11.2590   11.6050   22.0650 C.2   176  GLY176      0.2612
    149  O         11.9510   12.2410   22.8590 O.2   176  GLY176     -0.2717
    150  N         10.2330   10.8470   22.4380 N.am  177  VAL177     -0.1965
    151  CA         9.8180   10.7630   23.8370 C.3   177  VAL177      0.1727
    152  C         10.4240    9.5060   24.4620 C.2   177  VAL177      0.2616
    153  O         10.1160    8.3900   24.0510 O.2   177  VAL177     -0.2715
    154  CB         8.2730   10.7710   23.9820 C.3   177  VAL177      0.0290
    155  CG1        7.8660   10.6850   25.4500 C.3   177  VAL177      0.0023
    156  CG2        7.6780   12.0230   23.3520 C.3   177  VAL177      0.0023
    157  N         11.2950    9.7030   25.4510 N.am  178  ALA178     -0.1977
    158  CA        12.0040    8.5870   26.0830 C.3   178  ALA178      0.1597
    159  C         11.4970    8.2200   27.4870 C.2   178  ALA178      0.2287
    160  O         11.8370    7.1530   28.0090 O.2   178  ALA178     -0.2864
    161  CB        13.5040    8.8620   26.1080 C.3   178  ALA178      0.0319
    162  N         14.1420   16.3380   21.4390 N.3   190  ASN190     -0.1225
    163  CA        14.7550   15.0480   21.1750 C.3   190  ASN190      0.1785
    164  C         16.0400   14.9060   22.0020 C.2   190  ASN190      0.2597
    165  O         17.1060   15.3350   21.5660 O.2   190  ASN190     -0.2718
    166  CB        15.0300   14.9240   19.6740 C.3   190  ASN190      0.1169
    167  CG        15.6330   13.5880   19.2880 C.2   190  ASN190      0.2627
    168  OD1       15.4710   12.5870   19.9890 O.2   190  ASN190     -0.2716
    169  ND2       16.3310   13.5670   18.1570 N.am  190  ASN190     -0.0877
    170  N         15.9470   14.3300   23.2020 N.am  191  HIS191     -0.1975
    171  CA        14.7060   13.7850   23.7510 C.3   191  HIS191      0.1656
    172  C         13.7770   14.8640   24.3080 C.2   191  HIS191      0.2291
    173  O         14.2280   15.9500   24.6940 O.2   191  HIS191     -0.2864
    174  CB        15.0020   12.7110   24.8040 C.3   191  HIS191      0.0771
    175  CG        15.7220   11.5130   24.2580 C.ar  191  HIS191      0.0820
    176  ND1       16.3300   10.5770   25.0660 N.ar  191  HIS191     -0.2267
    177  CD2       15.9410   11.1060   22.9840 C.ar  191  HIS191      0.1154
    178  CE1       16.8800    9.6390   24.3160 C.ar  191  HIS191      0.1986
    179  NE2       16.6590    9.9370   23.0480 N.ar  191  HIS191     -0.2212
@<TRIPOS>BOND
     1     8     7    2
     2    44    43   ar
     3    44    42   ar
     4    43    41   ar
     5     7     6    1
     6     7     9   am
     7    42    40   ar
     8     6     5    1
     9    45    46    1
    10    51    50   ar
    11    51    53   ar
    12    49    46    1
    13    49    50    1
    14    75    74    1
    15    41    40   ar
    16    46    47    1
    17    40    39    1
    18    50    52   ar
    19    53    54   ar
    20     5     2    1
    21     2     1    1
    22     2     3    1
    23    74    76    1
    24    74    71    1
    25    35    36    1
    26    52    54   ar
    27    36    39    1
    28    36    37    1
    29    47    48    2
    30    25    23    1
    31    70    71    1
    32    71    72    1
    33     4     3    2
    34     3    10   am
    35    37    38    2
    36    23    24    1
    37    23    22    1
    38    10    11    1
    39    72    77   am
    40    72    73    2
    41   108   105    1
    42   104   105    1
    43    77    78    1
    44    55    56    1
    45    13    12    2
    46    19    22    1
    47    19    18    1
    48    19    20    1
    49   105   106    1
    50   169   167   am
    51    56    59    1
    52    56    57    1
    53    12    18   am
    54    12    11    1
    55    80    79    2
    56    11    14    1
    57    21    20    2
    58    20    26   am
    59    57    60   am
    60    57    58    2
    61    60    61    1
    62    78    79    1
    63    78    81    1
    64    79    85   am
    65   167   166    1
    66   167   168    2
    67    82    81    1
    68    82    84    1
    69    82    83    1
    70   106   109   am
    71   106   107    2
    72   166   163    1
    73    14    15    1
    74    67    65   ar
    75    67    69   ar
    76    85    86    1
    77    61    64    1
    78    61    62    1
    79    26    27    1
    80   146   147    1
    81   109   110    1
    82    64    65    1
    83    86    89    1
    84    86    87    1
    85   147   148    1
    86    65    66   ar
    87    28    27    1
    88    28    29    2
    89    69    68   ar
    90    16    15   ar
    91    15    17   ar
    92    27    30    1
    93    87    90   am
    94    87    88    2
    95   163   162    1
    96   163   164    1
    97    90    91    1
    98   112   111    2
    99    62    63    2
   100   165   164    2
   101   110   111    1
   102   110   113    1
   103   115   113    1
   104    66    68   ar
   105   164   170   am
   106   111   116   am
   107   148   150   am
   108   148   149    2
   109   113   114    1
   110    91    92    1
   111   150   151    1
   112    30    31    1
   113   116   117    1
   114   177   179   ar
   115   177   175   ar
   116   133   132    2
   117   179   178   ar
   118    31    32    1
   119   170   171    1
   120   156   154    1
   121   117   118    1
   122   117   120    1
   123    92    94   am
   124    92    93    2
   125   171   172    1
   126   171   174    1
   127    34    33    1
   128   132   134   am
   129   132   131    1
   130   151   154    1
   131   151   152    1
   132   154   155    1
   133   126   118   am
   134   126   127    1
   135   153   152    2
   136    94    95    1
   137   118   119    2
   138   175   174    1
   139   175   176   ar
   140   172   173    2
   141   178   176   ar
   142   130   127    1
   143   130   131    1
   144   120   121    1
   145   152   157   am
   146   123   121   ar
   147   123   125   ar
   148    32    33    1
   149   127   128    1
   150   121   122   ar
   151   125   124   ar
   152   103   101   ar
   153   103   102   ar
   154    95    96    1
   155    95    98    1
   156   101    99   ar
   157   157   158    1
   158   102   100   ar
   159    96    97    2
   160   122   124   ar
   161    99   100   ar
   162    99    98    1
   163   158   161    1
   164   158   159    1
   165   128   135   am
   166   128   129    2
   167   135   136    1
   168   159   160    2
   169   144   142   ar
   170   144   145   ar
   171   136   137    1
   172   136   139    1
   173   142   140   ar
   174   145   143   ar
   175   137   138    2
   176   140   139    1
   177   140   141   ar
   178   143   141   ar
