@<TRIPOS>MOLECULE
tmp/2qibA01.pdb
 195 188 0 0 0
SMALL
GASTEIGER

@<TRIPOS>ATOM
      1  N         18.3640    7.9790   12.9250 N.3    67  PHE67      -0.1241
      2  CA        17.6570    7.1280   13.9170 C.3    67  PHE67       0.1605
      3  C         18.5890    6.3400   14.8500 C.2    67  PHE67       0.2264
      4  O         18.1370    5.7860   15.8620 O.2    67  PHE67      -0.2867
      5  CB        16.7290    6.1280   13.2170 C.3    67  PHE67       0.0534
      6  CG        15.6110    6.7650   12.4240 C.ar   67  PHE67      -0.0203
      7  CD1       15.1080    8.0210   12.7350 C.ar   67  PHE67      -0.0042
      8  CD2       15.0580    6.0670   11.3630 C.ar   67  PHE67      -0.0042
      9  CE1       14.0390    8.5640   12.0060 C.ar   67  PHE67      -0.0003
     10  CE2       14.0050    6.6060   10.6230 C.ar   67  PHE67      -0.0003
     11  CZ        13.5080    7.8570   10.9480 C.ar   67  PHE67      -0.0000
     12  N         21.0510    5.5350   17.6480 N.3    69  GLU69      -0.1245
     13  CA        21.2430    6.1850   18.9660 C.3    69  GLU69       0.1567
     14  C         21.7490    5.1210   19.9360 C.2    69  GLU69       0.2260
     15  O         21.2240    4.0150   19.9470 O.2    69  GLU69      -0.2867
     16  CB        19.8910    6.7450   19.4580 C.3    69  GLU69       0.0388
     17  CG        19.9340    7.4510   20.8310 C.3    69  GLU69       0.1160
     18  CD        20.8060    8.7180   20.8540 C.2    69  GLU69       0.3649
     19  OE1       20.9900    9.3630   19.8040 O.co2  69  GLU69      -0.2457
     20  OE2       21.2900    9.1030   21.9500 O.co2  69  GLU69      -0.2457
     21  N         15.3110    5.1120   28.3780 N.3    75  LEU75      -0.1231
     22  CA        14.8910    5.0000   26.9730 C.3    75  LEU75       0.1693
     23  C         14.2290    6.2720   26.4670 C.2    75  LEU75       0.2592
     24  O         14.4190    6.6460   25.3150 O.2    75  LEU75      -0.2718
     25  CB        13.9820    3.7910   26.7700 C.3    75  LEU75       0.0284
     26  CG        14.7300    2.4800   26.5270 C.3    75  LEU75       0.0019
     27  CD1       15.4070    1.9950   27.8040 C.3    75  LEU75       0.0001
     28  CD2       13.8230    1.3980   25.9250 C.3    75  LEU75       0.0001
     29  N         13.4540    6.9290   27.3270 N.am   76  GLY76      -0.1957
     30  CA        12.7350    8.1460   26.9180 C.3    76  GLY76       0.1869
     31  C         13.7030    9.2000   26.4040 C.2    76  GLY76       0.2309
     32  O         13.4730    9.8120   25.3550 O.2    76  GLY76      -0.2863
     33  N         16.6880    8.7470   25.1170 N.3    78  ARG78      -0.1231
     34  CA        17.2320    8.3090   23.8260 C.3    78  ARG78       0.1694
     35  C         16.2630    8.7180   22.7280 C.2    78  ARG78       0.2591
     36  O         16.6560    9.2820   21.6910 O.2    78  ARG78      -0.2718
     37  CB        17.3330    6.7920   23.7840 C.3    78  ARG78       0.0321
     38  CG        18.1270    6.1590   24.9600 C.3    78  ARG78       0.0489
     39  CD        18.2530    4.6620   24.7410 C.3    78  ARG78       0.2205
     40  NE        18.6270    3.9860   25.9840 N.pl3  78  ARG78      -0.0865
     41  CZ        18.7040    2.6640   26.0990 C.cat  78  ARG78       0.5346
     42  NH1       18.4590    1.8820   25.0520 N.pl3  78  ARG78       0.1354
     43  NH2       19.0590    2.1260   27.2610 N.pl3  78  ARG78       0.1354
     44  N         14.9880    8.3780   22.9250 N.am   79  LEU79      -0.1980
     45  CA        13.9840    8.7510   21.9120 C.3    79  LEU79       0.1596
     46  C         13.8990   10.2730   21.7200 C.2    79  LEU79       0.2287
     47  O         13.7790   10.7510   20.5740 O.2    79  LEU79      -0.2864
     48  CB        12.6200    8.1520   22.2590 C.3    79  LEU79       0.0297
     49  CG        11.5030    8.3970   21.2240 C.3    79  LEU79       0.0022
     50  CD1       11.8680    7.8230   19.8460 C.3    79  LEU79       0.0001
     51  CD2       10.2250    7.7220   21.7370 C.3    79  LEU79       0.0001
     52  N         16.6580   11.3790   19.4140 N.3    82  VAL82      -0.1245
     53  CA        16.3300   11.0690   18.0220 C.3    82  VAL82       0.1561
     54  C         15.2290   12.0350   17.5150 C.2    82  VAL82       0.2260
     55  O         15.2790   12.5130   16.3730 O.2    82  VAL82      -0.2867
     56  CB        15.8310    9.6250   17.8610 C.3    82  VAL82       0.0252
     57  CG1       15.4220    9.3790   16.3850 C.3    82  VAL82       0.0019
     58  CG2       16.9130    8.6400   18.2950 C.3    82  VAL82       0.0019
     59  N         13.1530    3.0110   11.1250 N.3   121  ALA121     -0.1245
     60  CA        12.6690    3.4710   12.4420 C.3   121  ALA121      0.1562
     61  C         12.2170    2.2790   13.2860 C.2   121  ALA121      0.2260
     62  O         12.6080    2.1530   14.4710 O.2   121  ALA121     -0.2867
     63  CB        11.5020    4.4870   12.2840 C.3   121  ALA121      0.0290
     64  N         15.1180    0.1730   14.6720 N.3   124  GLN124     -0.1231
     65  CA        15.8010    0.8500   15.7900 C.3   124  GLN124      0.1698
     66  C         14.9990    0.8170   17.0800 C.2   124  GLN124      0.2592
     67  O         15.5430    0.5780   18.1580 O.2   124  GLN124     -0.2718
     68  CB        16.1770    2.2860   15.4240 C.3   124  GLN124      0.0381
     69  CG        17.3040    2.3820   14.3620 C.3   124  GLN124      0.0905
     70  CD        18.5460    1.5250   14.7410 C.2   124  GLN124      0.2608
     71  OE1       19.0930    1.6430   15.8250 O.2   124  GLN124     -0.2717
     72  NE2       18.9600    0.6450   13.8320 N.am  124  GLN124     -0.0878
     73  N         13.6870    1.0540   16.9730 N.am  125  ILE125     -0.1980
     74  CA        12.8620    1.0280   18.1690 C.3   125  ILE125      0.1595
     75  C         12.8800   -0.3630   18.7940 C.2   125  ILE125      0.2287
     76  O         13.0980   -0.4880   19.9680 O.2   125  ILE125     -0.2864
     77  CB        11.4270    1.4500   17.8540 C.3   125  ILE125      0.0276
     78  CG1       11.4230    2.9580   17.4920 C.3   125  ILE125      0.0022
     79  CG2       10.5000    1.1180   19.0570 C.3   125  ILE125      0.0022
     80  CD1       10.1530    3.3840   16.7590 C.3   125  ILE125      0.0001
     81  N         16.1500   -0.9800   20.7420 N.3   128  HIS128     -0.1226
     82  CA        16.1760   -0.3320   22.0390 C.3   128  HIS128      0.1752
     83  C         15.2800   -1.0220   23.0610 C.2   128  HIS128      0.2595
     84  O         15.6430   -1.0850   24.2480 O.2   128  HIS128     -0.2718
     85  CB        15.8150    1.1370   21.9250 C.3   128  HIS128      0.0759
     86  CG        16.9280    1.9800   21.3960 C.ar  128  HIS128      0.0818
     87  ND1       17.8440    2.6020   22.2250 N.ar  128  HIS128     -0.2268
     88  CD2       17.2940    2.2850   20.1270 C.ar  128  HIS128      0.1154
     89  CE1       18.7130    3.2660   21.4860 C.ar  128  HIS128      0.1986
     90  NE2       18.3990    3.0950   20.2090 N.ar  128  HIS128     -0.2212
     91  N         14.1410   -1.5470   22.5970 N.am  129  LEU129     -0.1980
     92  CA        13.2450   -2.3140   23.4560 C.3   129  LEU129      0.1596
     93  C         13.8090   -3.6920   23.7860 C.2   129  LEU129      0.2287
     94  O         13.2880   -4.3670   24.6880 O.2   129  LEU129     -0.2864
     95  CB        11.8480   -2.4370   22.8400 C.3   129  LEU129      0.0297
     96  CG        11.0290   -1.1360   22.6750 C.3   129  LEU129      0.0022
     97  CD1        9.7500   -1.3860   21.8220 C.3   129  LEU129      0.0001
     98  CD2       10.6710   -0.5140   24.0510 C.3   129  LEU129      0.0001
     99  N          2.7530    4.2050   16.0160 N.3   145  TRP145     -0.1241
    100  CA         3.4710    5.3710   16.5610 C.3   145  TRP145      0.1605
    101  C          4.3010    6.0510   15.4720 C.2   145  TRP145      0.2264
    102  O          4.3420    7.2700   15.3970 O.2   145  TRP145     -0.2867
    103  CB         4.3660    5.0200   17.7330 C.3   145  TRP145      0.0550
    104  CG         5.0490    6.2480   18.2770 C.ar  145  TRP145      0.0003
    105  CD1        4.5780    7.1480   19.2090 C.ar  145  TRP145      0.0946
    106  CD2        6.3270    6.7280   17.8630 C.ar  145  TRP145      0.0152
    107  NE1        5.5430    8.1590   19.4200 N.ar  145  TRP145     -0.2442
    108  CE2        6.5950    7.9220   18.5840 C.ar  145  TRP145      0.0810
    109  CE3        7.2770    6.2710   16.9250 C.ar  145  TRP145      0.0012
    110  CZ2        7.7910    8.6380   18.4150 C.ar  145  TRP145      0.0191
    111  CZ3        8.4880    7.0000   16.7770 C.ar  145  TRP145      0.0001
    112  CH2        8.7020    8.1710   17.5060 C.ar  145  TRP145      0.0015
    113  N          7.4050   11.6210   22.4990 N.3   172  VAL172     -0.1231
    114  CA         7.9800   10.6930   23.4760 C.3   172  VAL172      0.1692
    115  C          6.9150   10.2430   24.4880 C.2   172  VAL172      0.2592
    116  O          6.7360    9.0230   24.7140 O.2   172  VAL172     -0.2718
    117  CB         9.2150   11.2960   24.1950 C.3   172  VAL172      0.0266
    118  CG1        9.7430   10.2990   25.2650 C.3   172  VAL172      0.0020
    119  CG2       10.2700   11.6060   23.1430 C.3   172  VAL172      0.0020
    120  N          6.1760   11.2020   25.0590 N.am  173  HIS173     -0.1976
    121  CA         5.0740   10.8470   25.9470 C.3   173  HIS173      0.1656
    122  C          4.0030   10.0150   25.2380 C.2   173  HIS173      0.2291
    123  O          3.4870    9.0660   25.8200 O.2   173  HIS173     -0.2864
    124  CB         4.4300   12.0950   26.4880 C.3   173  HIS173      0.0771
    125  CG         5.2890   12.8270   27.4730 C.ar  173  HIS173      0.0820
    126  ND1        6.0700   12.1740   28.4110 N.ar  173  HIS173     -0.2267
    127  CD2        5.4390   14.1530   27.7090 C.ar  173  HIS173      0.1154
    128  CE1        6.6650   13.0730   29.1790 C.ar  173  HIS173      0.1986
    129  NE2        6.3180   14.2810   28.7610 N.ar  173  HIS173     -0.2212
    130  N          4.4000    7.8700   22.8940 N.3   175  PHE175     -0.1227
    131  CA         4.8740    6.4990   22.7510 C.3   175  PHE175      0.1736
    132  C          4.5560    5.7380   24.0520 C.2   175  PHE175      0.2595
    133  O          4.0010    4.6500   24.0160 O.2   175  PHE175     -0.2718
    134  CB         6.4010    6.4920   22.4490 C.3   175  PHE175      0.0547
    135  CG         6.9320    5.1220   22.0150 C.ar  175  PHE175     -0.0202
    136  CD1        7.2100    4.8540   20.6830 C.ar  175  PHE175     -0.0042
    137  CD2        7.1940    4.1410   22.9810 C.ar  175  PHE175     -0.0042
    138  CE1        7.6800    3.5710   20.2650 C.ar  175  PHE175     -0.0003
    139  CE2        7.6710    2.8680   22.6060 C.ar  175  PHE175     -0.0003
    140  CZ         7.9150    2.5860   21.2440 C.ar  175  PHE175     -0.0000
    141  N          4.9530    6.3010   25.2020 N.am  176  ALA176     -0.1980
    142  CA         4.6610    5.6630   26.5170 C.3   176  ALA176      0.1597
    143  C          3.1510    5.4200   26.6670 C.2   176  ALA176      0.2287
    144  O          2.6870    4.3260   27.0810 O.2   176  ALA176     -0.2864
    145  CB         5.1840    6.5640   27.6390 C.3   176  ALA176      0.0319
    146  N         10.2130   -1.0650   30.6440 N.3   194  VAL194     -0.1231
    147  CA        10.6040    0.1930   30.0460 C.3   194  VAL194      0.1692
    148  C         10.5000    1.3610   31.0310 C.2   194  VAL194      0.2591
    149  O         11.4430    2.1400   31.1940 O.2   194  VAL194     -0.2718
    150  CB         9.8020    0.4660   28.7450 C.3   194  VAL194      0.0266
    151  CG1       10.0310    1.8910   28.2790 C.3   194  VAL194      0.0020
    152  CG2       10.2330   -0.5300   27.6820 C.3   194  VAL194      0.0020
    153  N          9.3650    1.4800   31.7050 N.am  195  LEU195     -0.1980
    154  CA         9.1980    2.5270   32.7200 C.3   195  LEU195      0.1596
    155  C         10.0710    2.3920   33.9920 C.2   195  LEU195      0.2287
    156  O         10.3640    3.3810   34.6390 O.2   195  LEU195     -0.2864
    157  CB         7.7230    2.6920   33.0650 C.3   195  LEU195      0.0297
    158  CG         6.9020    3.0810   31.8370 C.3   195  LEU195      0.0022
    159  CD1        5.4110    2.9500   32.1250 C.3   195  LEU195      0.0001
    160  CD2        7.2520    4.5060   31.3440 C.3   195  LEU195      0.0001
    161  N         13.2620    4.4470   33.6400 N.3   198  GLU198     -0.1245
    162  CA        13.1830    5.8990   33.7550 C.3   198  GLU198      0.1567
    163  C         13.5400    6.3130   35.1870 C.2   198  GLU198      0.2260
    164  O         13.1610    5.6180   36.1220 O.2   198  GLU198     -0.2867
    165  CB        11.7590    6.3790   33.4450 C.3   198  GLU198      0.0388
    166  CG        11.2750    6.1900   31.9900 C.3   198  GLU198      0.1160
    167  CD        12.0990    6.9800   30.9730 C.2   198  GLU198      0.3649
    168  OE1       12.2560    8.2150   31.1470 O.co2 198  GLU198     -0.2457
    169  OE2       12.5560    6.3580   29.9900 O.co2 198  GLU198     -0.2457
    170  N         10.8570   12.7620   33.0880 N.3   203  PRO203     -0.2102
    171  CA         9.6930   13.2800   32.3670 C.3   203  PRO203      0.1504
    172  C          8.4260   12.4470   32.4640 C.2   203  PRO203      0.2575
    173  O          7.3320   13.0290   32.4790 O.2   203  PRO203     -0.2718
    174  CB        10.1680   13.3300   30.9000 C.3   203  PRO203      0.0282
    175  CG        11.6430   13.4200   30.9780 C.3   203  PRO203      0.0208
    176  CD        12.0310   12.6200   32.1970 C.3   203  PRO203      0.0893
    177  N          8.5300   11.1170   32.5180 N.am  204  PHE204     -0.1977
    178  CA         7.3280   10.3140   32.6230 C.3   204  PHE204      0.1639
    179  C          6.6970   10.6270   33.9850 C.2   204  PHE204      0.2290
    180  O          5.4710   10.7850   34.0960 O.2   204  PHE204     -0.2864
    181  CB         7.5920    8.8030   32.4950 C.3   204  PHE204      0.0560
    182  CG         6.3400    7.9690   32.5850 C.ar  204  PHE204     -0.0200
    183  CD1        5.4350    7.9210   31.5290 C.ar  204  PHE204     -0.0042
    184  CD2        6.0480    7.2430   33.7480 C.ar  204  PHE204     -0.0042
    185  CE1        4.2790    7.1760   31.6120 C.ar  204  PHE204     -0.0003
    186  CE2        4.8840    6.4910   33.8290 C.ar  204  PHE204     -0.0003
    187  CZ         4.0090    6.4510   32.7850 C.ar  204  PHE204     -0.0000
    188  N          4.9550   13.8360   33.7300 N.3   207  LEU207     -0.1245
    189  CA         3.6770   13.6280   33.0470 C.3   207  LEU207      0.1561
    190  C          2.5800   13.0690   33.9570 C.2   207  LEU207      0.2260
    191  O          1.4620   13.5590   33.9720 O.2   207  LEU207     -0.2867
    192  CB         3.8460   12.7080   31.8110 C.3   207  LEU207      0.0270
    193  CG         2.5520   12.2800   31.0910 C.3   207  LEU207      0.0019
    194  CD1        1.9150   13.4730   30.3350 C.3   207  LEU207      0.0001
    195  CD2        2.8610   11.1540   30.1230 C.3   207  LEU207      0.0001
@<TRIPOS>BOND
     1    10    11   ar
     2    10     8   ar
     3    11     9   ar
     4    59    60    1
     5     8     6   ar
     6     9     7   ar
     7    63    60    1
     8     6     7   ar
     9     6     5    1
    10    60    61    1
    11     1     2    1
    12     5     2    1
    13    61    62    2
    14    72    70   am
    15     2     3    1
    16    69    70    1
    17    69    68    1
    18    64    65    1
    19    70    71    2
    20     3     4    2
    21   102   101    2
    22    68    65    1
    23   101   100    1
    24    65    66    1
    25    99   100    1
    26    55    54    2
    27    57    56    1
    28   100   103    1
    29    80    78    1
    30   111   109   ar
    31   111   112   ar
    32   109   106   ar
    33    73    66   am
    34    73    74    1
    35    66    67    2
    36    78    77    1
    37   112   110   ar
    38    54    53    1
    39    12    13    1
    40   103   104    1
    41    77    74    1
    42    77    79    1
    43    56    53    1
    44    56    58    1
    45   106   104   ar
    46   106   108   ar
    47    53    52    1
    48    74    75    1
    49   104   105   ar
    50   110   108   ar
    51   108   107   ar
    52    75    76    2
    53    13    16    1
    54    13    14    1
    55   105   107   ar
    56    16    17    1
    57    19    18   ar
    58    50    49    1
    59    14    15    2
    60    88    90   ar
    61    88    86   ar
    62    90    89   ar
    63   138   136   ar
    64   138   140   ar
    65    47    46    2
    66   136   135   ar
    67    81    82    1
    68    17    18    1
    69    18    20   ar
    70    49    51    1
    71    49    48    1
    72   140   139   ar
    73    86    85    1
    74    86    87   ar
    75    89    87   ar
    76    36    35    2
    77    46    45    1
    78    97    96    1
    79    45    48    1
    80    45    44    1
    81    85    82    1
    82   135   134    1
    83   135   137   ar
    84    82    83    1
    85   134   131    1
    86   113   114    1
    87    91    83   am
    88    91    92    1
    89   139   137   ar
    90    96    95    1
    91    96    98    1
    92    35    44   am
    93    35    34    1
    94   131   130    1
    95   131   132    1
    96    95    92    1
    97    83    84    2
    98   119   117    1
    99    92    93    1
   100   114   117    1
   101   114   115    1
   102    37    34    1
   103    37    38    1
   104    93    94    2
   105    34    33    1
   106   133   132    2
   107   132   141   am
   108   117   118    1
   109   115   116    2
   110   115   120   am
   111    39    38    1
   112    39    40    1
   113    42    41    1
   114   120   121    1
   115   141   142    1
   116   122   123    2
   117   122   121    1
   118    24    23    2
   119    32    31    2
   120    28    26    1
   121   121   124    1
   122    40    41    2
   123    41    43    1
   124    31    30    1
   125    23    22    1
   126    23    29   am
   127   124   125    1
   128   142   143    1
   129   142   145    1
   130    26    25    1
   131    26    27    1
   132   143   144    2
   133    25    22    1
   134    30    29    1
   135    22    21    1
   136   125   127   ar
   137   125   126   ar
   138   152   150    1
   139   127   129   ar
   140   151   150    1
   141   126   128   ar
   142   150   147    1
   143   129   128   ar
   144   169   167   ar
   145   147   146    1
   146   147   148    1
   147   195   193    1
   148   194   193    1
   149   174   175    1
   150   174   171    1
   151   167   168   ar
   152   167   166    1
   153   175   176    1
   154   148   149    2
   155   148   153   am
   156   193   192    1
   157   160   158    1
   158   183   185   ar
   159   183   182   ar
   160   185   187   ar
   161   153   154    1
   162   192   189    1
   163   158   159    1
   164   158   157    1
   165   166   165    1
   166   176   170    1
   167   171   172    1
   168   171   170    1
   169   172   173    2
   170   172   177   am
   171   181   182    1
   172   181   178    1
   173   177   178    1
   174   182   184   ar
   175   178   179    1
   176   154   157    1
   177   154   155    1
   178   187   186   ar
   179   189   188    1
   180   189   190    1
   181   165   162    1
   182   161   162    1
   183   184   186   ar
   184   162   163    1
   185   190   191    2
   186   179   180    2
   187   155   156    2
   188   163   164    2
