@<TRIPOS>MOLECULE
tmp/2qibA00.pdb
 202 194 0 0 0
SMALL
GASTEIGER

@<TRIPOS>ATOM
      1  N         18.6940   17.8040   -4.4780 N.3    14  LEU14      -0.1245
      2  CA        18.1550   17.6540   -3.1320 C.3    14  LEU14       0.1561
      3  C         17.8580   19.0210   -2.5190 C.2    14  LEU14       0.2260
      4  O         16.8020   19.2150   -1.8980 O.2    14  LEU14      -0.2867
      5  CB        19.1330   16.8740   -2.2550 C.3    14  LEU14       0.0270
      6  CG        18.5680   16.6210   -0.8430 C.3    14  LEU14       0.0019
      7  CD1       17.1070   16.0900   -0.8490 C.3    14  LEU14       0.0001
      8  CD2       19.4750   15.6490   -0.1590 C.3    14  LEU14       0.0001
      9  N         14.6260   20.3890   -4.3990 N.3    17  PHE17      -0.1227
     10  CA        13.4640   19.5600   -4.0560 C.3    17  PHE17       0.1736
     11  C         13.1490   19.6330   -2.5600 C.2    17  PHE17       0.2596
     12  O         12.0510   19.2410   -2.1340 O.2    17  PHE17      -0.2718
     13  CB        13.6740   18.1150   -4.4760 C.3    17  PHE17       0.0547
     14  CG        13.5650   17.8880   -5.9730 C.ar   17  PHE17      -0.0202
     15  CD1       12.4130   18.2970   -6.6760 C.ar   17  PHE17      -0.0042
     16  CD2       14.5740   17.2250   -6.6740 C.ar   17  PHE17      -0.0042
     17  CE1       12.2970   18.0410   -8.0710 C.ar   17  PHE17      -0.0003
     18  CE2       14.4780   16.9750   -8.0330 C.ar   17  PHE17      -0.0003
     19  CZ        13.3420   17.3920   -8.7520 C.ar   17  PHE17      -0.0000
     20  N         14.0960   20.1100   -1.7530 N.am   18  SER18      -0.1952
     21  CA        13.8060   20.3150   -0.3280 C.3    18  SER18       0.1924
     22  C         13.0450   21.6230   -0.1310 C.2    18  SER18       0.2314
     23  O         12.1820   21.7290    0.7490 O.2    18  SER18      -0.2863
     24  CB        15.0800   20.3170    0.5220 C.3    18  SER18       0.2116
     25  OG        15.6350   19.0020    0.5030 O.3    18  SER18      -0.2180
     26  N         15.0230   13.1580   -9.0660 N.3    52  TYR52      -0.1241
     27  CA        14.2080   13.2760   -7.8500 C.3    52  TYR52       0.1605
     28  C         14.4150   12.0420   -6.9760 C.2    52  TYR52       0.2264
     29  O         14.5900   12.1660   -5.7710 O.2    52  TYR52      -0.2867
     30  CB        12.7210   13.4200   -8.1960 C.3    52  TYR52       0.0534
     31  CG        11.8280   13.5840   -6.9810 C.ar   52  TYR52      -0.0201
     32  CD1       11.6040   14.8480   -6.4010 C.ar   52  TYR52      -0.0009
     33  CD2       11.2010   12.4580   -6.4040 C.ar   52  TYR52      -0.0009
     34  CE1       10.7950   14.9860   -5.2670 C.ar   52  TYR52       0.0417
     35  CE2       10.3870   12.5800   -5.2550 C.ar   52  TYR52       0.0417
     36  CZ        10.1840   13.8480   -4.7090 C.ar   52  TYR52       0.1957
     37  OH         9.3580   13.9920   -3.6010 O.3    52  TYR52      -0.2866
     38  N         17.9420   12.1230   -5.3700 N.3    55  ALA55      -0.1231
     39  CA        17.9100   13.0620   -4.2280 C.3    55  ALA55       0.1694
     40  C         17.2200   12.4200   -3.0260 C.2    55  ALA55       0.2591
     41  O         17.6890   12.5430   -1.9010 O.2    55  ALA55      -0.2718
     42  CB        17.1890   14.2990   -4.6030 C.3    55  ALA55       0.0304
     43  N         16.0800   11.7700   -3.2800 N.am   56  LEU56      -0.1980
     44  CA        15.2870   11.1440   -2.2100 C.3    56  LEU56       0.1596
     45  C         16.0560   10.0040   -1.5450 C.2    56  LEU56       0.2287
     46  O         15.9930    9.8410   -0.3170 O.2    56  LEU56      -0.2864
     47  CB        13.9380   10.6650   -2.7620 C.3    56  LEU56       0.0297
     48  CG        13.0390    9.9690   -1.7260 C.3    56  LEU56       0.0022
     49  CD1       12.7470   10.8910   -0.4830 C.3    56  LEU56       0.0001
     50  CD2       11.7340    9.5250   -2.3680 C.3    56  LEU56       0.0001
     51  N         18.4610   11.6650    0.8360 N.3    59  ALA59      -0.1231
     52  CA        17.6850   12.1890    1.9790 C.3    59  ALA59       0.1694
     53  C         17.2180   11.0610    2.9050 C.2    59  ALA59       0.2592
     54  O         17.2980   11.1700    4.1450 O.2    59  ALA59      -0.2718
     55  CB        16.4960   12.9320    1.4700 C.3    59  ALA59       0.0304
     56  N         16.7410    9.9870    2.2900 N.am   60  SER60      -0.1952
     57  CA        16.2620    8.8050    3.0180 C.3    60  SER60       0.1924
     58  C         17.3890    8.1520    3.8210 C.2    60  SER60       0.2314
     59  O         17.1980    7.7710    4.9900 O.2    60  SER60      -0.2863
     60  CB        15.6190    7.8180    2.0230 C.3    60  SER60       0.2116
     61  OG        14.4240    8.3900    1.4970 O.3    60  SER60      -0.2180
     62  N         18.1030   10.4870    6.8880 N.3    63  LEU63      -0.1245
     63  CA        17.1280   10.3370    8.0060 C.3    63  LEU63       0.1561
     64  C         17.2910    8.9860    8.6900 C.2    63  LEU63       0.2260
     65  O         17.2960    8.9020    9.9160 O.2    63  LEU63      -0.2867
     66  CB        15.6920   10.5120    7.5320 C.3    63  LEU63       0.0270
     67  CG        14.6210   10.4520    8.6380 C.3    63  LEU63       0.0019
     68  CD1       14.9890   11.4000    9.8170 C.3    63  LEU63       0.0001
     69  CD2       13.2450   10.7760    8.0600 C.3    63  LEU63       0.0001
     70  N         18.3640    7.9790   12.9250 N.3    67  PHE67      -0.1241
     71  CA        17.6570    7.1280   13.9170 C.3    67  PHE67       0.1605
     72  C         18.5890    6.3400   14.8500 C.2    67  PHE67       0.2264
     73  O         18.1370    5.7860   15.8620 O.2    67  PHE67      -0.2867
     74  CB        16.7290    6.1280   13.2170 C.3    67  PHE67       0.0534
     75  CG        15.6110    6.7650   12.4240 C.ar   67  PHE67      -0.0203
     76  CD1       15.1080    8.0210   12.7350 C.ar   67  PHE67      -0.0042
     77  CD2       15.0580    6.0670   11.3630 C.ar   67  PHE67      -0.0042
     78  CE1       14.0390    8.5640   12.0060 C.ar   67  PHE67      -0.0003
     79  CE2       14.0050    6.6060   10.6230 C.ar   67  PHE67      -0.0003
     80  CZ        13.5080    7.8570   10.9480 C.ar   67  PHE67      -0.0000
     81  N         15.1600   14.2160   14.1390 N.3    85  TYR85      -0.1241
     82  CA        14.0370   14.0340   13.2420 C.3    85  TYR85       0.1605
     83  C         13.4110   15.3770   12.8730 C.2    85  TYR85       0.2264
     84  O         13.2770   15.6940   11.6890 O.2    85  TYR85      -0.2867
     85  CB        13.0240   13.0690   13.8700 C.3    85  TYR85       0.0534
     86  CG        11.6960   12.9700   13.1260 C.ar   85  TYR85      -0.0201
     87  CD1       11.6450   12.6330   11.7620 C.ar   85  TYR85      -0.0009
     88  CD2       10.4840   13.1820   13.8010 C.ar   85  TYR85      -0.0009
     89  CE1       10.3930   12.4860   11.0960 C.ar   85  TYR85       0.0417
     90  CE2        9.2390   13.0370   13.1520 C.ar   85  TYR85       0.0417
     91  CZ         9.2010   12.7070   11.8000 C.ar   85  TYR85       0.1957
     92  OH         8.0120   12.5530   11.1300 O.3    85  TYR85      -0.2866
     93  N         15.6960   17.3820   10.6690 N.3    88  PHE88      -0.1241
     94  CA        15.5680   16.8870    9.2900 C.3    88  PHE88       0.1605
     95  C         14.3400   17.4490    8.5980 C.2    88  PHE88       0.2264
     96  O         14.3970   17.9340    7.4670 O.2    88  PHE88      -0.2867
     97  CB        15.5110   15.3550    9.2820 C.3    88  PHE88       0.0534
     98  CG        15.4270   14.7760    7.8850 C.ar   88  PHE88      -0.0203
     99  CD1       16.5960   14.4680    7.1750 C.ar   88  PHE88      -0.0042
    100  CD2       14.1910   14.5620    7.2890 C.ar   88  PHE88      -0.0042
    101  CE1       16.5140   13.9570    5.8740 C.ar   88  PHE88      -0.0003
    102  CE2       14.0950   14.0430    5.9910 C.ar   88  PHE88      -0.0003
    103  CZ        15.2440   13.7370    5.2900 C.ar   88  PHE88      -0.0000
    104  N         14.1050   19.9970    5.3000 N.3    92  HIS92      -0.1241
    105  CA        13.5300   19.4660    4.0610 C.3    92  HIS92       0.1621
    106  C         12.0390   19.7550    3.9510 C.2    92  HIS92       0.2264
    107  O         11.3500   19.1170    3.1480 O.2    92  HIS92      -0.2867
    108  CB        13.7600   17.9570    4.0000 C.3    92  HIS92       0.0745
    109  CG        15.2090   17.5790    3.9760 C.ar   92  HIS92       0.0817
    110  ND1       15.9100   17.2390    5.1090 N.ar   92  HIS92      -0.2268
    111  CD2       16.0950   17.5220    2.9530 C.ar   92  HIS92       0.1154
    112  CE1       17.1690   16.9710    4.7840 C.ar   92  HIS92       0.1986
    113  NE2       17.3050   17.1280    3.4850 N.ar   92  HIS92      -0.2212
    114  N          9.6590   20.0470    0.6410 N.3    95  GLY95      -0.1210
    115  CA         9.7180   18.7900   -0.1220 C.3    95  GLY95       0.1956
    116  C          9.1100   17.5960    0.6120 C.2    95  GLY95       0.2611
    117  O          8.4130   16.7510    0.0010 O.2    95  GLY95      -0.2717
    118  N          9.3750   17.5330    1.9180 N.am   96  PHE96      -0.1976
    119  CA         8.7700   16.5230    2.8090 C.3    96  PHE96       0.1639
    120  C          7.2360   16.6070    2.7730 C.2    96  PHE96       0.2290
    121  O          6.5480   15.5710    2.5670 O.2    96  PHE96      -0.2864
    122  CB         9.3060   16.7620    4.2290 C.3    96  PHE96       0.0560
    123  CG         8.8810   15.7380    5.2390 C.ar   96  PHE96      -0.0200
    124  CD1        9.6140   14.5530    5.3820 C.ar   96  PHE96      -0.0042
    125  CD2        7.8090   15.9820    6.1080 C.ar   96  PHE96      -0.0042
    126  CE1        9.2430   13.5900    6.3610 C.ar   96  PHE96      -0.0003
    127  CE2        7.4410   15.0110    7.0990 C.ar   96  PHE96      -0.0003
    128  CZ         8.1360   13.8240    7.1770 C.ar   96  PHE96      -0.0000
    129  N          5.9520   15.4610   -0.6830 N.3    99  LEU99      -0.1245
    130  CA         6.1010   14.0200   -0.8680 C.3    99  LEU99       0.1561
    131  C          5.0710   13.2580   -0.0520 C.2    99  LEU99       0.2260
    132  O          4.4370   12.3220   -0.5490 O.2    99  LEU99      -0.2867
    133  CB         7.4940   13.5570   -0.4620 C.3    99  LEU99       0.0270
    134  CG         7.7960   12.0580   -0.5020 C.3    99  LEU99       0.0019
    135  CD1        7.7470   11.5300   -1.9270 C.3    99  LEU99       0.0001
    136  CD2        9.1160   11.7740    0.1280 C.3    99  LEU99       0.0001
    137  N         10.4810    5.6110    0.9380 N.3   114  VAL114     -0.1245
    138  CA         9.7570    6.0870    2.1310 C.3   114  VAL114      0.1561
    139  C          9.5100    4.9060    3.0860 C.2   114  VAL114      0.2260
    140  O          9.7730    4.9740    4.3050 O.2   114  VAL114     -0.2867
    141  CB         8.4640    6.8300    1.7460 C.3   114  VAL114      0.0252
    142  CG1        7.5930    7.1110    2.9520 C.3   114  VAL114      0.0019
    143  CG2        8.8290    8.1630    1.0410 C.3   114  VAL114      0.0019
    144  N         12.5600    3.9060    5.1000 N.3   117  VAL117     -0.1231
    145  CA        12.7780    4.7980    6.2640 C.3   117  VAL117      0.1692
    146  C         11.8590    4.3830    7.4440 C.2   117  VAL117      0.2591
    147  O         12.3230    4.2650    8.5890 O.2   117  VAL117     -0.2718
    148  CB        12.5930    6.2990    5.9070 C.3   117  VAL117      0.0266
    149  CG1       12.8610    7.1870    7.1330 C.3   117  VAL117      0.0020
    150  CG2       13.5060    6.7070    4.7430 C.3   117  VAL117      0.0020
    151  N         10.5790    4.1310    7.1550 N.am  118  ARG118     -0.1980
    152  CA         9.6480    3.6710    8.1840 C.3   118  ARG118      0.1597
    153  C         10.1420    2.3720    8.8100 C.2   118  ARG118      0.2287
    154  O         10.1350    2.2200   10.0430 O.2   118  ARG118     -0.2864
    155  CB         8.2640    3.4560    7.5900 C.3   118  ARG118      0.0334
    156  CG         7.6190    4.7430    7.1390 C.3   118  ARG118      0.0492
    157  CD         6.3130    4.4150    6.4140 C.3   118  ARG118      0.2205
    158  NE         5.5960    5.6370    6.0890 N.pl3 118  ARG118     -0.0865
    159  CZ         4.9540    5.8370    4.9590 C.cat 118  ARG118      0.5346
    160  NH1        4.9790    4.8930    4.0000 N.pl3 118  ARG118      0.1354
    161  NH2        4.3400    6.9970    4.7570 N.pl3 118  ARG118      0.1354
    162  N         13.1530    3.0110   11.1250 N.3   121  ALA121     -0.1245
    163  CA        12.6690    3.4710   12.4420 C.3   121  ALA121      0.1562
    164  C         12.2170    2.2790   13.2860 C.2   121  ALA121      0.2260
    165  O         12.6080    2.1530   14.4710 O.2   121  ALA121     -0.2867
    166  CB        11.5020    4.4870   12.2840 C.3   121  ALA121      0.0290
    167  N          2.7530    4.2050   16.0160 N.3   145  TRP145     -0.1227
    168  CA         3.4710    5.3710   16.5610 C.3   145  TRP145      0.1737
    169  C          4.3010    6.0510   15.4720 C.2   145  TRP145      0.2595
    170  O          4.3420    7.2700   15.3970 O.2   145  TRP145     -0.2718
    171  CB         4.3660    5.0200   17.7330 C.3   145  TRP145      0.0564
    172  CG         5.0490    6.2480   18.2770 C.ar  145  TRP145      0.0003
    173  CD1        4.5780    7.1480   19.2090 C.ar  145  TRP145      0.0946
    174  CD2        6.3270    6.7280   17.8630 C.ar  145  TRP145      0.0152
    175  NE1        5.5430    8.1590   19.4200 N.ar  145  TRP145     -0.2442
    176  CE2        6.5950    7.9220   18.5840 C.ar  145  TRP145      0.0810
    177  CE3        7.2770    6.2710   16.9250 C.ar  145  TRP145      0.0012
    178  CZ2        7.7910    8.6380   18.4150 C.ar  145  TRP145      0.0191
    179  CZ3        8.4880    7.0000   16.7770 C.ar  145  TRP145      0.0001
    180  CH2        8.7020    8.1710   17.5060 C.ar  145  TRP145      0.0015
    181  N          4.9680    5.2510   14.6580 N.am  146  ILE146     -0.1980
    182  CA         5.7230    5.7910   13.4940 C.3   146  ILE146      0.1595
    183  C          4.7800    6.6170   12.6060 C.2   146  ILE146      0.2287
    184  O          5.1130    7.7270   12.2220 O.2   146  ILE146     -0.2864
    185  CB         6.4360    4.6730   12.6980 C.3   146  ILE146      0.0276
    186  CG1        7.5570    4.0640   13.5690 C.3   146  ILE146      0.0022
    187  CG2        6.9790    5.2250   11.3430 C.3   146  ILE146      0.0022
    188  CD1        8.0800    2.7000   13.0700 C.3   146  ILE146      0.0001
    189  N          4.1020    9.8620   14.4210 N.3   149  ALA149     -0.1231
    190  CA         5.2600   10.7590   14.3260 C.3   149  ALA149      0.1694
    191  C          5.3730   11.4430   12.9440 C.2   149  ALA149      0.2591
    192  O          5.7070   12.6360   12.8620 O.2   149  ALA149     -0.2718
    193  CB         6.5570   10.0180   14.6760 C.3   149  ALA149      0.0304
    194  N          5.0630   10.7160   11.8630 N.am  150  GLU150     -0.1979
    195  CA         4.9540   11.3090   10.5170 C.3   150  GLU150      0.1602
    196  C          3.8630   12.3990   10.4870 C.2   150  GLU150      0.2287
    197  O          4.0620   13.5340   10.0260 O.2   150  GLU150     -0.2864
    198  CB         4.5560   10.1930    9.5390 C.3   150  GLU150      0.0415
    199  CG         5.6400    9.2290    9.2820 C.3   150  GLU150      0.1163
    200  CD         5.2080    8.1430    8.2670 C.2   150  GLU150      0.3649
    201  OE1        4.3090    8.3990    7.4400 O.co2 150  GLU150     -0.2457
    202  OE2        5.7860    7.0520    8.3290 O.co2 150  GLU150     -0.2457
@<TRIPOS>BOND
     1    26    27    1
     2    19    17   ar
     3    19    18   ar
     4    30    27    1
     5    30    31    1
     6    17    15   ar
     7    18    16   ar
     8    27    28    1
     9    31    33   ar
    10    31    32   ar
    11    28    29    2
    12    15    14   ar
    13    16    14   ar
    14    33    35   ar
    15    32    34   ar
    16    14    13    1
    17    38    39    1
    18    34    36   ar
    19    35    36   ar
    20    36    37    1
    21    42    39    1
    22     1     2    1
    23    13    10    1
    24     9    10    1
    25    39    40    1
    26    10    11    1
    27    43    40   am
    28    43    44    1
    29     2     3    1
    30     2     5    1
    31    40    41    2
    32    47    44    1
    33    47    48    1
    34    11    12    2
    35    11    20   am
    36     3     4    2
    37    50    48    1
    38     5     6    1
    39    44    45    1
    40   135   134    1
    41    20    21    1
    42    48    49    1
    43    45    46    2
    44   130   129    1
    45   130   133    1
    46   130   131    1
    47     7     6    1
    48     6     8    1
    49   132   131    2
    50   134   133    1
    51   134   136    1
    52    21    22    1
    53    21    24    1
    54    22    23    2
    55   115   116    1
    56   115   114    1
    57   117   116    2
    58    25    24    1
    59   116   118   am
    60    51    52    1
    61   137   138    1
    62   143   141    1
    63    55    52    1
    64    61    60    1
    65   141   138    1
    66   141   142    1
    67   118   119    1
    68    52    53    1
    69    60    57    1
    70   138   139    1
    71    56    53   am
    72    56    57    1
    73   121   120    2
    74   120   119    1
    75   119   122    1
    76    53    54    2
    77   111   113   ar
    78   111   109   ar
    79    57    58    1
    80   139   140    2
    81   107   106    2
    82   113   112   ar
    83    58    59    2
    84   106   105    1
    85   109   108    1
    86   109   110   ar
    87   108   105    1
    88   160   159    1
    89   105   104    1
    90   122   123    1
    91   150   148    1
    92   161   159    1
    93   112   110   ar
    94   159   158    2
    95   144   145    1
    96   123   124   ar
    97   123   125   ar
    98   103   101   ar
    99   103   102   ar
   100   124   126   ar
   101   101    99   ar
   102   148   145    1
   103   148   149    1
   104   102   100   ar
   105   158   157    1
   106   125   127   ar
   107   145   146    1
   108   126   128   ar
   109   157   156    1
   110    62    63    1
   111   127   128   ar
   112   156   155    1
   113   151   146   am
   114   151   152    1
   115    99    98   ar
   116   100    98   ar
   117   201   200   ar
   118   146   147    2
   119    96    95    2
   120    66    63    1
   121    66    67    1
   122   155   152    1
   123    98    97    1
   124    63    64    1
   125    69    67    1
   126   152   153    1
   127   200   202   ar
   128   200   199    1
   129    95    94    1
   130    67    68    1
   131    64    65    2
   132   153   154    2
   133   199   198    1
   134    97    94    1
   135    94    93    1
   136   198   195    1
   137   197   196    2
   138   196   195    1
   139   195   194    1
   140    79    80   ar
   141    79    77   ar
   142    80    78   ar
   143    89    87   ar
   144    89    91   ar
   145   162   163    1
   146    92    91    1
   147   187   185    1
   148    77    75   ar
   149    84    83    2
   150    87    86   ar
   151    91    90   ar
   152   194   191   am
   153    78    76   ar
   154   184   183    2
   155   166   163    1
   156    75    76   ar
   157    75    74    1
   158   163   164    1
   159   183   182    1
   160   185   182    1
   161   185   186    1
   162   192   191    2
   163    83    82    1
   164    70    71    1
   165   191   190    1
   166   188   186    1
   167    86    88   ar
   168    86    85    1
   169    90    88   ar
   170    74    71    1
   171    82    85    1
   172    82    81    1
   173   164   165    2
   174   182   181    1
   175    71    72    1
   176   190   189    1
   177   190   193    1
   178   181   169   am
   179    72    73    2
   180   170   169    2
   181   169   168    1
   182   167   168    1
   183   168   171    1
   184   179   177   ar
   185   179   180   ar
   186   177   174   ar
   187   180   178   ar
   188   171   172    1
   189   174   172   ar
   190   174   176   ar
   191   172   173   ar
   192   178   176   ar
   193   176   175   ar
   194   173   175   ar
