@<TRIPOS>MOLECULE
tmp/2qieA00.pdb
 133 124 0 0 0
SMALL
GASTEIGER

@<TRIPOS>ATOM
      1  N         18.3310   42.5740   19.8750 N.3    31  PHE31      -0.1241
      2  CA        19.4680   43.1410   20.5760 C.3    31  PHE31       0.1605
      3  C         20.7290   42.6490   19.9070 C.2    31  PHE31       0.2264
      4  O         20.8780   41.4530   19.6650 O.2    31  PHE31      -0.2867
      5  CB        19.4430   42.7350   22.0520 C.3    31  PHE31       0.0534
      6  CG        20.6880   43.1030   22.8130 C.ar   31  PHE31      -0.0203
      7  CD1       20.8300   44.3590   23.3660 C.ar   31  PHE31      -0.0042
      8  CD2       21.7040   42.1760   22.9900 C.ar   31  PHE31      -0.0042
      9  CE1       21.9590   44.6990   24.0720 C.ar   31  PHE31      -0.0003
     10  CE2       22.8390   42.5050   23.6940 C.ar   31  PHE31      -0.0003
     11  CZ        22.9640   43.7740   24.2380 C.ar   31  PHE31      -0.0000
     12  N         24.9390   42.9130   20.5430 N.3    33  GLY33      -0.1210
     13  CA        26.0560   43.2980   21.3980 C.3    33  GLY33       0.1956
     14  C         27.2780   43.4800   20.5260 C.2    33  GLY33       0.2612
     15  O         27.6800   42.5540   19.8260 O.2    33  GLY33      -0.2717
     16  N         27.8570   44.6790   20.5710 N.am   34  HIS34      -0.1961
     17  CA        28.9940   45.0680   19.7290 C.3    34  HIS34       0.1787
     18  C         30.2340   45.3250   20.5720 C.2    34  HIS34       0.2620
     19  O         30.1330   45.8190   21.6830 O.2    34  HIS34      -0.2715
     20  CB        28.6820   46.3620   18.9680 C.3    34  HIS34       0.0785
     21  CG        27.4910   46.2680   18.0650 C.ar   34  HIS34       0.0821
     22  ND1       27.6020   46.1690   16.6950 N.ar   34  HIS34      -0.2267
     23  CD2       26.1630   46.2720   18.3380 C.ar   34  HIS34       0.1154
     24  CE1       26.3930   46.1160   16.1620 C.ar   34  HIS34       0.1986
     25  NE2       25.5020   46.1730   17.1380 N.ar   34  HIS34      -0.2212
     26  N         31.4060   45.0190   20.0260 N.am   35  VAL35      -0.1963
     27  CA        32.6620   45.2580   20.7320 C.3    35  VAL35       0.1727
     28  C         32.9530   46.7650   20.8020 C.2    35  VAL35       0.2616
     29  O         32.9410   47.4600   19.7950 O.2    35  VAL35      -0.2715
     30  CB        33.8270   44.5140   20.0600 C.3    35  VAL35       0.0290
     31  CG1       35.1720   44.8670   20.7170 C.3    35  VAL35       0.0023
     32  CG2       33.5810   43.0160   20.1060 C.3    35  VAL35       0.0023
     33  N         33.2460   47.2370   22.0050 N.am   36  ARG36      -0.1977
     34  CA        33.3690   48.6570   22.3090 C.3    36  ARG36       0.1597
     35  C         34.8410   49.0480   22.4560 C.2    36  ARG36       0.2287
     36  O         35.5770   48.3910   23.1790 O.2    36  ARG36      -0.2864
     37  CB        32.6200   48.9100   23.6210 C.3    36  ARG36       0.0334
     38  CG        32.2790   50.3610   23.9430 C.3    36  ARG36       0.0492
     39  CD        31.8800   50.5060   25.4220 C.3    36  ARG36       0.2205
     40  NE        30.8000   49.5840   25.7670 N.pl3  36  ARG36      -0.0865
     41  CZ        30.8910   48.5220   26.5730 C.cat  36  ARG36       0.5346
     42  NH1       32.0200   48.1870   27.2050 N.pl3  36  ARG36       0.1354
     43  NH2       29.8040   47.7890   26.7560 N.pl3  36  ARG36       0.1354
     44  N         35.5550   52.2230   27.2070 N.3    39  THR39      -0.1218
     45  CA        34.7150   51.9510   28.3690 C.3    39  THR39       0.1862
     46  C         35.1620   52.8810   29.4910 C.2    39  THR39       0.2287
     47  O         36.1370   52.5950   30.1900 O.2    39  THR39      -0.2866
     48  CB        34.8060   50.4690   28.8200 C.3    39  THR39       0.1770
     49  OG1       34.7110   49.6050   27.6770 O.3    39  THR39      -0.2211
     50  CG2       33.6870   50.1350   29.8060 C.3    39  THR39       0.0375
     51  N         39.9370   49.4240   24.6690 N.3    44  THR44      -0.1218
     52  CA        40.0180   48.0270   24.2140 C.3    44  THR44       0.1862
     53  C         40.5940   47.9720   22.7920 C.2    44  THR44       0.2287
     54  O         40.1150   48.6720   21.9000 O.2    44  THR44      -0.2866
     55  CB        38.6270   47.3440   24.2450 C.3    44  THR44       0.1770
     56  OG1       38.1760   47.2570   25.5970 O.3    44  THR44      -0.2211
     57  CG2       38.6640   45.9360   23.6590 C.3    44  THR44       0.0375
     58  N         38.5900   42.0310   21.3650 N.3    47  LEU47      -0.1245
     59  CA        38.1350   40.9950   22.2870 C.3    47  LEU47       0.1561
     60  C         38.3990   39.6170   21.7280 C.2    47  LEU47       0.2260
     61  O         38.6010   39.4450   20.5400 O.2    47  LEU47      -0.2867
     62  CB        36.6400   41.1390   22.5720 C.3    47  LEU47       0.0270
     63  CG        36.2030   42.3820   23.3470 C.3    47  LEU47       0.0019
     64  CD1       34.7140   42.3180   23.6180 C.3    47  LEU47       0.0001
     65  CD2       36.9640   42.5300   24.6520 C.3    47  LEU47       0.0001
     66  N         36.5400   35.9060   22.4150 N.3    49  TYR49      -0.1241
     67  CA        35.5800   35.0350   23.0760 C.3    49  TYR49       0.1605
     68  C         35.9770   33.5800   22.8670 C.2    49  TYR49       0.2264
     69  O         36.4560   33.2110   21.8000 O.2    49  TYR49      -0.2867
     70  CB        34.1740   35.2610   22.5190 C.3    49  TYR49       0.0534
     71  CG        33.5580   36.5760   22.9260 C.ar   49  TYR49      -0.0201
     72  CD1       33.8200   37.7350   22.2110 C.ar   49  TYR49      -0.0009
     73  CD2       32.7130   36.6600   24.0280 C.ar   49  TYR49      -0.0009
     74  CE1       33.2510   38.9620   22.5800 C.ar   49  TYR49       0.0417
     75  CE2       32.1410   37.8730   24.4100 C.ar   49  TYR49       0.0417
     76  CZ        32.4140   39.0160   23.6740 C.ar   49  TYR49       0.1957
     77  OH        31.8610   40.2070   24.0300 O.3    49  TYR49      -0.2866
     78  N         29.0280   40.4380   18.6550 N.3    91  ALA91      -0.1231
     79  CA        29.3690   39.2290   19.4040 C.3    91  ALA91       0.1694
     80  C         28.1240   38.3950   19.7310 C.2    91  ALA91       0.2591
     81  O         28.1920   37.1590   19.8110 O.2    91  ALA91      -0.2718
     82  CB        30.1090   39.5940   20.6720 C.3    91  ALA91       0.0304
     83  N         26.9900   39.0670   19.9310 N.am   92  VAL92      -0.1980
     84  CA        25.7430   38.3770   20.2710 C.3    92  VAL92       0.1595
     85  C         24.5540   39.0350   19.6020 C.2    92  VAL92       0.2287
     86  O         24.5170   40.2490   19.4680 O.2    92  VAL92      -0.2864
     87  CB        25.5280   38.3190   21.8100 C.3    92  VAL92       0.0276
     88  CG1       25.1790   39.7020   22.3980 C.3    92  VAL92       0.0022
     89  CG2       24.4650   37.3050   22.1630 C.3    92  VAL92       0.0022
     90  N         19.2900   38.4140   27.5790 N.3   112  ILE112     -0.1245
     91  CA        20.6470   38.9060   27.7360 C.3   112  ILE112      0.1561
     92  C         21.1220   38.7620   29.1800 C.2   112  ILE112      0.2260
     93  O         22.2740   38.4150   29.4280 O.2   112  ILE112     -0.2867
     94  CB        20.8290   40.3470   27.2180 C.3   112  ILE112      0.0252
     95  CG1       22.3020   40.7460   27.2760 C.3   112  ILE112      0.0019
     96  CG2       19.9740   41.3530   27.9840 C.3   112  ILE112      0.0019
     97  CD1       23.2200   39.8850   26.4310 C.3   112  ILE112      0.0001
     98  N         24.4530   36.2700   30.5510 N.3   116  LYS116     -0.1245
     99  CA        25.5180   36.7760   31.4180 C.3   116  LYS116      0.1561
    100  C         25.6330   35.9860   32.7240 C.2   116  LYS116      0.2260
    101  O         26.6320   36.0680   33.4270 O.2   116  LYS116     -0.2867
    102  CB        25.2870   38.2600   31.7250 C.3   116  LYS116      0.0271
    103  CG        25.4330   39.1410   30.5010 C.3   116  LYS116      0.0035
    104  CD        25.5900   40.6210   30.8430 C.3   116  LYS116      0.0206
    105  CE        25.8940   41.4340   29.5920 C.3   116  LYS116      0.1093
    106  NZ        27.1190   40.9820   28.8820 N.3   116  LYS116     -0.1314
    107  N         34.8760   36.1430   27.7040 N.3   123  LYS123     -0.1245
    108  CA        35.5350   37.1640   26.9020 C.3   123  LYS123      0.1561
    109  C         36.8540   37.5700   27.5390 C.2   123  LYS123      0.2260
    110  O         36.9660   37.6440   28.7650 O.2   123  LYS123     -0.2867
    111  CB        34.6260   38.3850   26.6860 C.3   123  LYS123      0.0271
    112  CG        34.7370   39.5050   27.7110 C.3   123  LYS123      0.0035
    113  CD        33.6780   40.5810   27.4800 C.3   123  LYS123      0.0206
    114  CE        32.2800   40.0600   27.8260 C.3   123  LYS123      0.1093
    115  NZ        31.2350   41.1130   27.8840 N.3   123  LYS123     -0.1314
    116  N         39.5240   40.6340   27.4560 N.3   125  GLU125     -0.1245
    117  CA        39.8540   41.9880   27.0390 C.3   125  GLU125      0.1567
    118  C         41.3360   42.0470   26.7050 C.2   125  GLU125      0.2260
    119  O         42.1640   41.6950   27.5400 O.2   125  GLU125     -0.2867
    120  CB        39.5560   42.9880   28.1540 C.3   125  GLU125      0.0388
    121  CG        38.0750   43.2680   28.4000 C.3   125  GLU125      0.1160
    122  CD        37.6170   44.6560   27.9420 C.2   125  GLU125      0.3649
    123  OE1       38.3250   45.2950   27.1270 O.co2 125  GLU125     -0.2457
    124  OE2       36.5380   45.1060   28.3980 O.co2 125  GLU125     -0.2457
    125  N         37.5260   38.2120   31.7630 N.3   134  GLN134     -0.1245
    126  CA        36.5230   38.8970   32.5770 C.3   134  GLN134      0.1566
    127  C         35.6960   37.9190   33.3940 C.2   134  GLN134      0.2260
    128  O         35.4750   36.7830   32.9720 O.2   134  GLN134     -0.2867
    129  CB        35.5820   39.7180   31.6960 C.3   134  GLN134      0.0367
    130  CG        36.2820   40.7310   30.8320 C.3   134  GLN134      0.0905
    131  CD        37.1380   41.6810   31.6380 C.2   134  GLN134      0.2608
    132  OE1       38.3660   41.6980   31.5020 O.2   134  GLN134     -0.2717
    133  NE2       36.4980   42.4680   32.4980 N.am  134  GLN134     -0.0878
@<TRIPOS>BOND
     1    24    22   ar
     2    24    25   ar
     3    22    21   ar
     4    25    23   ar
     5    21    23   ar
     6    21    20    1
     7    78    79    1
     8    20    17    1
     9    79    80    1
    10    79    82    1
    11    86    85    2
    12    85    84    1
    13     4     3    2
    14    17    16    1
    15    17    18    1
    16    80    81    2
    17    80    83   am
    18    29    28    2
    19    15    14    2
    20     1     2    1
    21     3     2    1
    22    83    84    1
    23    26    18   am
    24    26    27    1
    25    30    32    1
    26    30    31    1
    27    30    27    1
    28    84    87    1
    29    14    16   am
    30    14    13    1
    31    61    60    2
    32    12    13    1
    33    18    19    2
    34     2     5    1
    35    27    28    1
    36    28    33   am
    37    58    59    1
    38    60    59    1
    39    69    68    2
    40    87    89    1
    41    87    88    1
    42    54    53    2
    43    33    34    1
    44     5     6    1
    45    72    74   ar
    46    72    71   ar
    47    59    62    1
    48    34    35    1
    49    34    37    1
    50    66    67    1
    51    35    36    2
    52    70    71    1
    53    70    67    1
    54    62    63    1
    55    74    76   ar
    56    53    52    1
    57     6     8   ar
    58     6     7   ar
    59    68    67    1
    60    71    73   ar
    61     8    10   ar
    62    63    64    1
    63    63    65    1
    64     7     9   ar
    65    37    38    1
    66    57    55    1
    67    76    77    1
    68    76    75   ar
    69    10    11   ar
    70    38    39    1
    71    73    75   ar
    72     9    11   ar
    73    52    55    1
    74    52    51    1
    75    55    56    1
    76    39    40    1
    77    40    41    2
    78    97    95    1
    79    41    43    1
    80    41    42    1
    81   111   108    1
    82   111   112    1
    83   118   117    1
    84   118   119    2
    85   108   109    1
    86   108   107    1
    87   117   116    1
    88   117   120    1
    89   123   122   ar
    90    44    45    1
    91    94    95    1
    92    94    91    1
    93    94    96    1
    94   113   112    1
    95   113   114    1
    96   109   110    2
    97    90    91    1
    98    49    48    1
    99    91    92    1
   100   114   115    1
   101   122   124   ar
   102   122   121    1
   103   120   121    1
   104    45    48    1
   105    45    46    1
   106    48    50    1
   107   106   105    1
   108    92    93    2
   109    46    47    2
   110   105   104    1
   111   103   104    1
   112   103   102    1
   113    98    99    1
   114   130   131    1
   115   130   129    1
   116    99   102    1
   117    99   100    1
   118   132   131    2
   119   131   133   am
   120   129   126    1
   121   125   126    1
   122   126   127    1
   123   100   101    2
   124   128   127    2
