@<TRIPOS>MOLECULE
tmp/2qikA00.pdb
 138 137 0 0 0
SMALL
GASTEIGER

@<TRIPOS>ATOM
      1  N         -4.4230   45.3840   15.6470 N.3   119  TYR119     -0.1227
      2  CA        -3.3190   44.4370   15.6280 C.3   119  TYR119      0.1736
      3  C         -3.4150   43.5050   16.8340 C.2   119  TYR119      0.2595
      4  O         -3.3780   43.9470   17.9880 O.2   119  TYR119     -0.2718
      5  CB        -1.9720   45.1540   15.6170 C.3   119  TYR119      0.0548
      6  CG        -0.7870   44.2380   15.8450 C.ar  119  TYR119     -0.0200
      7  CD1       -0.6080   43.1180   15.0850 C.ar  119  TYR119     -0.0009
      8  CD2        0.0910   44.4860   16.8600 C.ar  119  TYR119     -0.0009
      9  CE1        0.3920   42.2190   15.3660 C.ar  119  TYR119      0.0417
     10  CE2        1.1440   43.6110   17.1510 C.ar  119  TYR119      0.0417
     11  CZ         1.2670   42.4640   16.3860 C.ar  119  TYR119      0.1957
     12  OH         2.2490   41.5560   16.6920 O.3   119  TYR119     -0.2866
     13  N         -3.5450   42.2010   16.5470 N.am  120  PHE120     -0.1962
     14  CA        -3.6870   41.1540   17.5900 C.3   120  PHE120      0.1771
     15  C         -2.3400   40.4570   17.8380 C.2   120  PHE120      0.2619
     16  O         -1.8030   39.8020   16.9170 O.2   120  PHE120     -0.2715
     17  CB        -4.7300   40.1660   17.1540 C.3   120  PHE120      0.0574
     18  CG        -5.0300   39.1050   18.1420 C.ar  120  PHE120     -0.0200
     19  CD1       -5.7320   39.3370   19.3210 C.ar  120  PHE120     -0.0042
     20  CD2       -4.6350   37.7960   17.9190 C.ar  120  PHE120     -0.0042
     21  CE1       -5.9830   38.3030   20.2510 C.ar  120  PHE120     -0.0003
     22  CE2       -4.8660   36.8180   18.9130 C.ar  120  PHE120     -0.0003
     23  CZ        -5.5480   37.0720   19.9940 C.ar  120  PHE120     -0.0000
     24  N         -1.8170   40.6510   19.0320 N.am  121  ALA121     -0.1963
     25  CA        -0.5700   40.0570   19.4330 C.3   121  ALA121      0.1728
     26  C         -0.8330   38.9480   20.4370 C.2   121  ALA121      0.2616
     27  O         -1.5570   39.1580   21.4210 O.2   121  ALA121     -0.2715
     28  CB         0.2980   41.1650   20.1590 C.3   121  ALA121      0.0334
     29  N         -0.1670   37.8230   20.2680 N.am  122  TYR122     -0.1960
     30  CA        -0.3650   36.6360   21.0970 C.3   122  TYR122      0.1771
     31  C          0.9260   36.1280   21.7240 C.2   122  TYR122      0.2620
     32  O          0.9000   35.1440   22.4620 O.2   122  TYR122     -0.2715
     33  CB        -1.0600   35.5420   20.2890 C.3   122  TYR122      0.0574
     34  CG        -0.3000   35.1530   19.0340 C.ar  122  TYR122     -0.0198
     35  CD1       -0.6180   35.7140   17.8360 C.ar  122  TYR122     -0.0009
     36  CD2        0.7800   34.3100   19.0850 C.ar  122  TYR122     -0.0009
     37  CE1        0.1310   35.4250   16.6620 C.ar  122  TYR122      0.0417
     38  CE2        1.4950   34.0050   17.9780 C.ar  122  TYR122      0.0417
     39  CZ         1.2020   34.5770   16.7600 C.ar  122  TYR122      0.1957
     40  OH         1.9680   34.2060   15.7070 O.3   122  TYR122     -0.2866
     41  N          2.0450   36.7510   21.4190 N.am  123  GLY123     -0.1940
     42  CA         3.3050   36.3450   21.9810 C.3   123  GLY123      0.2014
     43  C          4.1030   37.5190   22.5160 C.2   123  GLY123      0.2640
     44  O          3.6130   38.2610   23.2960 O.2   123  GLY123     -0.2714
     45  N          5.3980   37.6060   22.1160 N.am  124  SER124     -0.1935
     46  CA         6.2670   38.6440   22.7030 C.3   124  SER124      0.2055
     47  C          5.8660   40.0570   22.3140 C.2   124  SER124      0.2643
     48  O          6.2480   40.9820   23.0080 O.2   124  SER124     -0.2714
     49  CB         7.7150   38.4760   22.4600 C.3   124  SER124      0.2130
     50  OG         8.0720   38.8610   21.1780 O.3   124  SER124     -0.2179
     51  N          5.0220   40.2120   21.2820 N.am  125  CYS125     -0.1967
     52  CA         4.4690   41.5460   21.0100 C.3   125  CYS125      0.1712
     53  C          3.4170   41.9710   22.0440 C.2   125  CYS125      0.2296
     54  O          2.9520   43.1060   21.9630 O.2   125  CYS125     -0.2864
     55  CB         3.8860   41.6470   19.6090 C.3   125  CYS125      0.0983
     56  SG         5.1980   41.6050   18.3740 S.3   125  CYS125     -0.0798
     57  N         10.9210   45.4180   23.5660 N.3   129  ARG129     -0.1245
     58  CA        11.4730   45.5060   22.2010 C.3   129  ARG129      0.1563
     59  C         10.8720   46.7420   21.5140 C.2   129  ARG129      0.2260
     60  O         11.5960   47.4340   20.8320 O.2   129  ARG129     -0.2867
     61  CB        11.3180   44.2530   21.3440 C.3   129  ARG129      0.0307
     62  CG        12.2040   43.1200   21.8110 C.3   129  ARG129      0.0489
     63  CD        12.0630   41.9180   20.8800 C.3   129  ARG129      0.2205
     64  NE        12.5240   42.3010   19.5370 N.pl3 129  ARG129     -0.0865
     65  CZ        12.4050   41.5540   18.4470 C.cat 129  ARG129      0.5346
     66  NH1       11.8120   40.4280   18.5910 N.pl3 129  ARG129      0.1354
     67  NH2       12.8260   42.0270   17.2440 N.pl3 129  ARG129      0.1354
     68  N          9.7680   30.0190   18.3480 N.3   164  ARG164     -0.1231
     69  CA         8.9450   31.2180   18.5250 C.3   164  ARG164      0.1694
     70  C          7.4770   30.8460   18.3550 C.2   164  ARG164      0.2591
     71  O          7.1380   29.7950   17.8120 O.2   164  ARG164     -0.2718
     72  CB         9.3550   32.3340   17.5620 C.3   164  ARG164      0.0321
     73  CG        10.8640   32.6740   17.6490 C.3   164  ARG164      0.0489
     74  CD        11.2500   33.2990   18.8990 C.3   164  ARG164      0.2205
     75  NE        12.6070   33.7760   18.9070 N.pl3 164  ARG164     -0.0865
     76  CZ        13.6710   33.0440   19.1250 C.cat 164  ARG164      0.5346
     77  NH1       13.6010   31.7630   19.2940 N.pl3 164  ARG164      0.1354
     78  NH2       14.8830   33.6130   19.1070 N.pl3 164  ARG164      0.1354
     79  N          6.6140   31.7260   18.8070 N.am  165  ALA165     -0.1980
     80  CA         5.1940   31.5240   18.8700 C.3   165  ALA165      0.1597
     81  C          4.4820   31.6150   17.5240 C.2   165  ALA165      0.2287
     82  O          4.9530   32.2230   16.5900 O.2   165  ALA165     -0.2864
     83  CB         4.5640   32.4540   19.8380 C.3   165  ALA165      0.0319
     84  N          9.8620   43.1700   12.0140 N.3   191  ARG191     -0.1231
     85  CA        10.0030   42.3160   13.2040 C.3   191  ARG191      0.1694
     86  C          9.5830   40.8820   12.9460 C.2   191  ARG191      0.2591
     87  O         10.1510   39.9490   13.4530 O.2   191  ARG191     -0.2718
     88  CB         9.1720   42.9290   14.3400 C.3   191  ARG191      0.0321
     89  CG         9.2790   42.1830   15.6150 C.3   191  ARG191      0.0489
     90  CD         8.6680   42.9140   16.7770 C.3   191  ARG191      0.2205
     91  NE         8.6010   42.0990   17.9880 N.pl3 191  ARG191     -0.0865
     92  CZ         8.3940   42.5700   19.1960 C.cat 191  ARG191      0.5346
     93  NH1        8.3740   43.8730   19.4170 N.pl3 191  ARG191      0.1354
     94  NH2        8.2470   41.7460   20.1900 N.pl3 191  ARG191      0.1354
     95  N          8.5580   40.7240   12.1300 N.am  192  GLU192     -0.1979
     96  CA         7.9860   39.4070   11.8140 C.3   192  GLU192      0.1602
     97  C          8.5780   38.7680   10.5880 C.2   192  GLU192      0.2287
     98  O          8.1540   37.6850   10.1690 O.2   192  GLU192     -0.2864
     99  CB         6.4460   39.5170   11.6580 C.3   192  GLU192      0.0415
    100  CG         5.8020   40.1260   12.8710 C.3   192  GLU192      0.1163
    101  CD         5.7740   39.3110   14.0450 C.2   192  GLU192      0.3649
    102  OE1        6.2390   38.1510   14.0410 O.co2 192  GLU192     -0.2457
    103  OE2        5.0000   39.7640   14.9630 O.co2 192  GLU192     -0.2457
    104  N          7.0710   34.8590    8.9500 N.3   199  TYR199     -0.1241
    105  CA         5.6590   34.9310    9.2190 C.3   199  TYR199      0.1605
    106  C          4.9890   35.5630    8.0170 C.2   199  TYR199      0.2264
    107  O          5.6200   36.3340    7.2690 O.2   199  TYR199     -0.2867
    108  CB         5.3220   35.8160   10.4280 C.3   199  TYR199      0.0534
    109  CG         5.7450   35.2260   11.7670 C.ar  199  TYR199     -0.0201
    110  CD1        4.8350   34.6750   12.6540 C.ar  199  TYR199     -0.0009
    111  CD2        7.0870   35.2380   12.1530 C.ar  199  TYR199     -0.0009
    112  CE1        5.2280   34.1210   13.8190 C.ar  199  TYR199      0.0417
    113  CE2        7.4850   34.6760   13.3220 C.ar  199  TYR199      0.0417
    114  CZ         6.5330   34.1080   14.1910 C.ar  199  TYR199      0.1957
    115  OH         6.9710   33.5410   15.3600 O.3   199  TYR199     -0.2866
    116  N          0.0690   37.8240   12.7650 N.3   219  PHE219     -0.1241
    117  CA         1.1080   37.2220   11.9710 C.3   219  PHE219      0.1605
    118  C          1.1780   35.7690   12.3230 C.2   219  PHE219      0.2264
    119  O          1.0580   35.3890   13.5010 O.2   219  PHE219     -0.2867
    120  CB         2.4710   37.9110   12.2110 C.3   219  PHE219      0.0534
    121  CG         2.5120   39.3040   11.7270 C.ar  219  PHE219     -0.0203
    122  CD1        2.1220   40.3350   12.5450 C.ar  219  PHE219     -0.0042
    123  CD2        2.8770   39.5970   10.4210 C.ar  219  PHE219     -0.0042
    124  CE1        2.0960   41.6240   12.0900 C.ar  219  PHE219     -0.0003
    125  CE2        2.8800   40.8820    9.9560 C.ar  219  PHE219     -0.0003
    126  CZ         2.4750   41.9010   10.7930 C.ar  219  PHE219     -0.0000
    127  N         13.0570   35.2190   25.4720 N.3   234  TYR234     -0.1241
    128  CA        11.7760   35.3190   24.7090 C.3   234  TYR234      0.1605
    129  C         10.5850   34.8510   25.5510 C.2   234  TYR234      0.2264
    130  O          9.5910   35.5130   25.5910 O.2   234  TYR234     -0.2867
    131  CB        11.9040   34.5130   23.4440 C.3   234  TYR234      0.0534
    132  CG        10.6770   34.4590   22.5630 C.ar  234  TYR234     -0.0201
    133  CD1       10.2720   35.5470   21.8020 C.ar  234  TYR234     -0.0009
    134  CD2        9.9320   33.3090   22.5070 C.ar  234  TYR234     -0.0009
    135  CE1        9.1220   35.4560   21.0040 C.ar  234  TYR234      0.0417
    136  CE2        8.8240   33.2000   21.7490 C.ar  234  TYR234      0.0417
    137  CZ         8.4070   34.2800   21.0040 C.ar  234  TYR234      0.1957
    138  OH         7.2940   34.1200   20.2540 O.3   234  TYR234     -0.2866
@<TRIPOS>BOND
     1   107   106    2
     2   106   105    1
     3   104   105    1
     4   105   108    1
     5   125   123   ar
     6   125   126   ar
     7    98    97    2
     8   123   121   ar
     9   108   109    1
    10    97    96    1
    11   126   124   ar
    12    99    96    1
    13    99   100    1
    14   121   120    1
    15   121   122   ar
    16   109   111   ar
    17   109   110   ar
    18    96    95    1
    19   117   120    1
    20   117   118    1
    21   117   116    1
    22    84    85    1
    23   124   122   ar
    24    95    86   am
    25   111   113   ar
    26   118   119    2
    27   110   112   ar
    28   100   101    1
    29    86    85    1
    30    86    87    2
    31    85    88    1
    32   113   114   ar
    33   112   114   ar
    34   102   101   ar
    35   101   103   ar
    36   114   115    1
    37    88    89    1
    38     7     9   ar
    39     7     6   ar
    40     9    11   ar
    41    89    90    1
    42     5     2    1
    43     5     6    1
    44     2     1    1
    45     2     3    1
    46    40    39    1
    47     6     8   ar
    48    11    12    1
    49    11    10   ar
    50    13     3   am
    51    13    14    1
    52    82    81    2
    53    37    39   ar
    54    37    35   ar
    55    39    38   ar
    56    90    91    1
    57     3     4    2
    58     8    10   ar
    59    16    15    2
    60    17    14    1
    61    17    18    1
    62    67    65    1
    63    81    80    1
    64    72    73    1
    65    72    69    1
    66    14    15    1
    67    73    74    1
    68    71    70    2
    69    35    34   ar
    70    15    24   am
    71    20    18   ar
    72    20    22   ar
    73    38    36   ar
    74    91    92    2
    75    18    19   ar
    76    68    69    1
    77    70    69    1
    78    70    79   am
    79    56    55    1
    80    65    66    1
    81    65    64    2
    82    79    80    1
    83    80    83    1
    84    74    75    1
    85    75    76    2
    86    22    23   ar
    87    24    25    1
    88    34    36   ar
    89    34    33    1
    90    78    76    1
    91    76    77    1
    92    92    93    1
    93    92    94    1
    94    19    21   ar
    95    25    28    1
    96    25    26    1
    97    64    63    1
    98    55    52    1
    99    23    21   ar
   100   138   137    1
   101    29    26   am
   102    29    30    1
   103    33    30    1
   104    26    27    2
   105    60    59    2
   106    63    62    1
   107   137   135   ar
   108   137   136   ar
   109   135   133   ar
   110    52    51    1
   111    52    53    1
   112    30    31    1
   113    50    49    1
   114    51    47   am
   115    61    62    1
   116    61    58    1
   117    41    31   am
   118    41    42    1
   119    59    58    1
   120    31    32    2
   121   136   134   ar
   122   133   132   ar
   123    54    53    2
   124    42    43    1
   125    45    43   am
   126    45    46    1
   127    58    57    1
   128    47    46    1
   129    47    48    2
   130    49    46    1
   131   134   132   ar
   132    43    44    2
   133   132   131    1
   134   131   128    1
   135   128   127    1
   136   128   129    1
   137   129   130    2
