@<TRIPOS>MOLECULE
tmp/2qimA01.pdb
 145 137 0 0 0
SMALL
GASTEIGER

@<TRIPOS>ATOM
      1  N         72.7980   40.4730   -6.5750 N.3     5  PHE5       -0.1241
      2  CA        71.5220   40.0950   -7.1610 C.3     5  PHE5        0.1605
      3  C         70.9190   41.3550   -7.7570 C.2     5  PHE5        0.2264
      4  O         71.1340   42.4580   -7.2650 O.2     5  PHE5       -0.2867
      5  CB        70.5850   39.5290   -6.1190 C.3     5  PHE5        0.0534
      6  CG        71.1950   38.4360   -5.3070 C.ar    5  PHE5       -0.0203
      7  CD1       70.9510   37.1300   -5.6690 C.ar    5  PHE5       -0.0042
      8  CD2       71.9880   38.6720   -4.1950 C.ar    5  PHE5       -0.0042
      9  CE1       71.4770   36.0710   -4.9730 C.ar    5  PHE5       -0.0003
     10  CE2       72.5520   37.6140   -3.5270 C.ar    5  PHE5       -0.0003
     11  CZ        72.2930   36.3290   -3.9120 C.ar    5  PHE5       -0.0000
     12  N         67.1510   42.9580   -9.0760 N.3     7  ASP7       -0.1239
     13  CA        65.6910   42.9240   -9.1680 C.3     7  ASP7        0.1674
     14  C         65.3040   44.1260  -10.0540 C.2     7  ASP7        0.2266
     15  O         65.9660   45.1830  -10.0570 O.2     7  ASP7       -0.2867
     16  CB        65.0060   43.1730   -7.8420 C.3     7  ASP7        0.1410
     17  CG        65.2590   42.1830   -6.7380 C.2     7  ASP7        0.3668
     18  OD1       65.9150   41.1650   -6.8890 O.co2   7  ASP7       -0.2456
     19  OD2       64.7440   42.5150   -5.6420 O.co2   7  ASP7       -0.2456
     20  N         61.4400   46.1160  -10.7820 N.3     9  TYR9       -0.1241
     21  CA        60.0280   46.2200  -10.4520 C.3     9  TYR9        0.1605
     22  C         59.4200   47.2360  -11.3880 C.2     9  TYR9        0.2264
     23  O         59.8510   48.3690  -11.4670 O.2     9  TYR9       -0.2867
     24  CB        59.9110   46.7240   -9.0100 C.3     9  TYR9        0.0534
     25  CG        60.5520   45.7860   -8.0190 C.ar    9  TYR9       -0.0201
     26  CD1       59.9150   44.6310   -7.6350 C.ar    9  TYR9       -0.0009
     27  CD2       61.8100   46.0410   -7.4830 C.ar    9  TYR9       -0.0009
     28  CE1       60.4720   43.7660   -6.7380 C.ar    9  TYR9        0.0417
     29  CE2       62.4140   45.1360   -6.6100 C.ar    9  TYR9        0.0417
     30  CZ        61.7260   44.0010   -6.2240 C.ar    9  TYR9        0.1957
     31  OH        62.2850   43.1200   -5.2990 O.3     9  TYR9       -0.2866
     32  N         71.1110   52.1220    0.5010 N.3    82  TYR82      -0.1241
     33  CA        71.0200   51.9170    1.9160 C.3    82  TYR82       0.1605
     34  C         71.5250   50.5440    2.2890 C.2    82  TYR82       0.2264
     35  O         71.6030   49.6440    1.4410 O.2    82  TYR82      -0.2867
     36  CB        69.5780   52.0940    2.4100 C.3    82  TYR82       0.0534
     37  CG        68.6040   51.0010    2.0220 C.ar   82  TYR82      -0.0201
     38  CD1       68.2950   49.9830    2.9130 C.ar   82  TYR82      -0.0009
     39  CD2       67.9790   50.9940    0.8360 C.ar   82  TYR82      -0.0009
     40  CE1       67.4080   48.9810    2.5790 C.ar   82  TYR82       0.0417
     41  CE2       67.0570   49.9900    0.4900 C.ar   82  TYR82       0.0417
     42  CZ        66.7650   48.9830    1.3970 C.ar   82  TYR82       0.1957
     43  OH        65.8560   48.0070    1.1010 O.3    82  TYR82      -0.2866
     44  N         74.0700   43.1610    4.2390 N.3    97  ILE97      -0.1245
     45  CA        73.2530   43.2820    3.0300 C.3    97  ILE97       0.1561
     46  C         72.9850   44.7720    2.7710 C.2    97  ILE97       0.2260
     47  O         72.6050   45.5330    3.6780 O.2    97  ILE97      -0.2867
     48  CB        71.9660   42.5110    3.1530 C.3    97  ILE97       0.0252
     49  CG1       71.1610   42.5960    1.8750 C.3    97  ILE97       0.0019
     50  CG2       71.1810   42.8760    4.3490 C.3    97  ILE97       0.0019
     51  CD1       70.1340   41.5390    1.7730 C.3    97  ILE97       0.0001
     52  N         71.9260   47.7740   -0.5930 N.3    99  PHE99      -0.1241
     53  CA        71.1000   47.9640   -1.7290 C.3    99  PHE99       0.1605
     54  C         71.4920   49.2490   -2.4380 C.2    99  PHE99       0.2264
     55  O         71.7160   50.2680   -1.7910 O.2    99  PHE99      -0.2867
     56  CB        69.6360   48.1100   -1.3020 C.3    99  PHE99       0.0534
     57  CG        69.1460   46.9350   -0.5230 C.ar   99  PHE99      -0.0203
     58  CD1       68.5620   45.8660   -1.1390 C.ar   99  PHE99      -0.0042
     59  CD2       69.2950   46.9010    0.8550 C.ar   99  PHE99      -0.0042
     60  CE1       68.1410   44.7740   -0.4080 C.ar   99  PHE99      -0.0003
     61  CE2       68.8540   45.8190    1.5740 C.ar   99  PHE99      -0.0003
     62  CZ        68.2760   44.7610    0.9290 C.ar   99  PHE99      -0.0000
     63  N         69.6320   51.4870   -5.4200 N.3   101  THR101     -0.1218
     64  CA        68.3840   51.6000   -6.1470 C.3   101  THR101      0.1862
     65  C         68.3980   52.8360   -7.0430 C.2   101  THR101      0.2287
     66  O         68.9500   53.9000   -6.7180 O.2   101  THR101     -0.2866
     67  CB        67.1600   51.6350   -5.2110 C.3   101  THR101      0.1770
     68  OG1       66.9290   52.9560   -4.7020 O.3   101  THR101     -0.2211
     69  CG2       67.2180   50.6110   -4.0840 C.3   101  THR101      0.0375
     70  N         67.0600   47.5180   -8.5990 N.3   115  VAL115     -0.1245
     71  CA        67.6700   47.2880   -7.2980 C.3   115  VAL115      0.1561
     72  C         68.8280   46.3160   -7.4740 C.2   115  VAL115      0.2260
     73  O         68.6320   45.2430   -7.9940 O.2   115  VAL115     -0.2867
     74  CB        66.6890   46.6810   -6.2570 C.3   115  VAL115      0.0252
     75  CG1       67.3810   46.4480   -4.9210 C.3   115  VAL115      0.0019
     76  CG2       65.4170   47.5430   -6.0860 C.3   115  VAL115      0.0019
     77  N         71.3040   44.2460   -5.0960 N.3   117  ILE117     -0.1245
     78  CA        71.4640   43.7290   -3.7570 C.3   117  ILE117      0.1561
     79  C         72.8590   43.1220   -3.6230 C.2   117  ILE117      0.2260
     80  O         73.2380   42.3010   -4.4210 O.2   117  ILE117     -0.2867
     81  CB        70.4000   42.6800   -3.3910 C.3   117  ILE117      0.0252
     82  CG1       68.9800   43.2050   -3.7110 C.3   117  ILE117      0.0019
     83  CG2       70.5830   42.2190   -1.9480 C.3   117  ILE117      0.0019
     84  CD1       68.3790   42.9070   -5.0780 C.3   117  ILE117      0.0001
     85  N         75.2330   41.0710   -0.9760 N.3   119  ILE119     -0.1245
     86  CA        75.2560   40.3040    0.2730 C.3   119  ILE119      0.1561
     87  C         76.7080   39.8630    0.4950 C.2   119  ILE119      0.2260
     88  O         77.3180   39.2400   -0.3710 O.2   119  ILE119     -0.2867
     89  CB        74.3340   39.0670    0.2180 C.3   119  ILE119      0.0252
     90  CG1       72.8900   39.5260   -0.0270 C.3   119  ILE119      0.0019
     91  CG2       74.4630   38.1960    1.4840 C.3   119  ILE119      0.0019
     92  CD1       71.8650   38.4750   -0.1140 C.3   119  ILE119      0.0001
     93  N         65.4670   32.8190    1.8050 N.3   131  GLU131     -0.1231
     94  CA        65.3570   34.2120    2.2010 C.3   131  GLU131      0.1699
     95  C         65.3680   35.1860    1.0420 C.2   131  GLU131      0.2592
     96  O         64.5980   36.1530    1.0250 O.2   131  GLU131     -0.2718
     97  CB        66.4530   34.5550    3.1880 C.3   131  GLU131      0.0402
     98  CG        66.4380   36.0380    3.6120 C.3   131  GLU131      0.1161
     99  CD        65.1900   36.5140    4.3260 C.2   131  GLU131      0.3649
    100  OE1       64.4860   35.6920    4.9770 O.co2 131  GLU131     -0.2457
    101  OE2       64.9220   37.7620    4.2540 O.co2 131  GLU131     -0.2457
    102  N         66.2380   34.9480    0.0610 N.am  132  GLY132     -0.1957
    103  CA        66.2740   35.7760   -1.1040 C.3   132  GLY132      0.1869
    104  C         64.9680   35.7630   -1.8510 C.2   132  GLY132      0.2309
    105  O         64.4740   36.7860   -2.2910 O.2   132  GLY132     -0.2863
    106  N         62.4830   37.6970    0.1330 N.3   135  ALA135     -0.1231
    107  CA        62.7990   39.1170    0.0820 C.3   135  ALA135      0.1694
    108  C         62.3650   39.7310   -1.2320 C.2   135  ALA135      0.2591
    109  O         61.8290   40.8500   -1.2810 O.2   135  ALA135     -0.2718
    110  CB        64.2350   39.3750    0.3790 C.3   135  ALA135      0.0304
    111  N         62.5940   39.0070   -2.3330 N.am  136  LYS136     -0.1980
    112  CA        62.1230   39.4580   -3.6270 C.3   136  LYS136      0.1596
    113  C         60.6010   39.4990   -3.6820 C.2   136  LYS136      0.2287
    114  O         60.0620   40.4290   -4.2570 O.2   136  LYS136     -0.2864
    115  CB        62.6980   38.5500   -4.6930 C.3   136  LYS136      0.0298
    116  CG        62.1890   38.8210   -6.1000 C.3   136  LYS136      0.0038
    117  CD        62.3950   40.2440   -6.5190 C.3   136  LYS136      0.0206
    118  CE        62.3450   40.4140   -8.0270 C.3   136  LYS136      0.1093
    119  NZ        61.1050   39.8290   -8.6130 N.3   136  LYS136     -0.1314
    120  N         59.4850   42.4910   -2.1110 N.3   139  GLY139     -0.1225
    121  CA        59.7320   43.6010   -3.0040 C.3   139  GLY139      0.1811
    122  C         58.6030   43.7570   -4.0180 C.2   139  GLY139      0.2280
    123  O         58.0900   44.8480   -4.2400 O.2   139  GLY139     -0.2866
    124  N         55.5860   45.0760   -2.1690 N.3   142  PHE142     -0.1227
    125  CA        55.8720   46.4460   -1.7810 C.3   142  PHE142      0.1736
    126  C         55.5820   47.4080   -2.9380 C.2   142  PHE142      0.2595
    127  O         54.8120   48.3740   -2.8180 O.2   142  PHE142     -0.2718
    128  CB        57.3570   46.4870   -1.4120 C.3   142  PHE142      0.0547
    129  CG        57.9010   47.8120   -1.0480 C.ar  142  PHE142     -0.0202
    130  CD1       57.7940   48.2830    0.2440 C.ar  142  PHE142     -0.0042
    131  CD2       58.6500   48.5440   -1.9630 C.ar  142  PHE142     -0.0042
    132  CE1       58.3830   49.4880    0.5840 C.ar  142  PHE142     -0.0003
    133  CE2       59.2310   49.7260   -1.6290 C.ar  142  PHE142     -0.0003
    134  CZ        59.0980   50.2000   -0.3760 C.ar  142  PHE142     -0.0000
    135  N         56.1400   47.1270   -4.1110 N.am  143  PHE143     -0.1976
    136  CA        55.8710   47.9580   -5.2720 C.3   143  PHE143      0.1639
    137  C         54.4360   47.8850   -5.7270 C.2   143  PHE143      0.2290
    138  O         53.8590   48.8950   -6.1060 O.2   143  PHE143     -0.2864
    139  CB        56.8420   47.6120   -6.3980 C.3   143  PHE143      0.0560
    140  CG        58.1480   48.3300   -6.3120 C.ar  143  PHE143     -0.0200
    141  CD1       58.3250   49.5350   -6.9420 C.ar  143  PHE143     -0.0042
    142  CD2       59.1950   47.8050   -5.5960 C.ar  143  PHE143     -0.0042
    143  CE1       59.5370   50.1910   -6.8460 C.ar  143  PHE143     -0.0003
    144  CE2       60.3940   48.4920   -5.4920 C.ar  143  PHE143     -0.0003
    145  CZ        60.5710   49.6850   -6.0980 C.ar  143  PHE143     -0.0000
@<TRIPOS>BOND
     1    23    22    2
     2    22    21    1
     3    20    21    1
     4    21    24    1
     5    15    14    2
     6    14    13    1
     7    13    12    1
     8    13    16    1
     9    24    25    1
    10   119   118    1
    11    70    71    1
    12   118   117    1
    13    25    26   ar
    14    25    27   ar
    15    73    72    2
    16    16    17    1
    17     3     4    2
    18     3     2    1
    19    26    28   ar
    20    27    29   ar
    21    72    71    1
    22    71    74    1
    23     2     1    1
    24     2     5    1
    25    65    66    2
    26    65    64    1
    27   141   143   ar
    28   141   140   ar
    29    18    17   ar
    30   143   145   ar
    31    17    19   ar
    32    28    30   ar
    33    29    30   ar
    34   117   116    1
    35   139   140    1
    36   139   136    1
    37   140   142   ar
    38    74    76    1
    39    74    75    1
    40    30    31    1
    41    64    63    1
    42    64    67    1
    43     5     6    1
    44   138   137    2
    45   116   115    1
    46   145   144   ar
    47   137   136    1
    48     7     6   ar
    49     7     9   ar
    50   142   144   ar
    51     6     8   ar
    52   136   135    1
    53    67    68    1
    54    67    69    1
    55    77    78    1
    56    84    82    1
    57     9    11   ar
    58   115   112    1
    59    80    79    2
    60   114   113    2
    61   123   122    2
    62     8    10   ar
    63   135   126   am
    64   122   121    1
    65    11    10   ar
    66    78    79    1
    67    78    81    1
    68    82    81    1
    69   113   112    1
    70   112   111    1
    71    81    83    1
    72   121   120    1
    73   126   127    2
    74   126   125    1
    75    54    55    2
    76    54    53    1
    77   111   108   am
    78   105   104    2
    79   124   125    1
    80   131   133   ar
    81   131   129   ar
    82   104   103    1
    83   125   128    1
    84    53    56    1
    85    53    52    1
    86   133   134   ar
    87   128   129    1
    88    56    57    1
    89   109   108    2
    90   108   107    1
    91    58    57   ar
    92    58    60   ar
    93   103   102    1
    94   129   130   ar
    95    85    86    1
    96    57    59   ar
    97    60    62   ar
    98   134   132   ar
    99    88    87    2
   100    92    90    1
   101    90    89    1
   102   102    95   am
   103   107   106    1
   104   107   110    1
   105    89    86    1
   106    89    91    1
   107   130   132   ar
   108    86    87    1
   109    41    39   ar
   110    41    42   ar
   111    32    33    1
   112    39    37   ar
   113    59    61   ar
   114    62    61   ar
   115    96    95    2
   116    95    94    1
   117    43    42    1
   118    42    40   ar
   119    35    34    2
   120    51    49    1
   121    93    94    1
   122    49    48    1
   123    33    34    1
   124    33    36    1
   125    37    36    1
   126    37    38   ar
   127    94    97    1
   128    40    38   ar
   129    46    45    1
   130    46    47    2
   131    45    48    1
   132    45    44    1
   133    48    50    1
   134    97    98    1
   135    98    99    1
   136   101    99   ar
   137    99   100   ar
