@<TRIPOS>MOLECULE
tmp/2qimA02.pdb
 128 121 0 0 0
SMALL
GASTEIGER

@<TRIPOS>ATOM
      1  N         51.8590   45.2930    5.1950 N.3    36  THR36      -0.1203
      2  CA        52.7040   44.6450    6.2180 C.3    36  THR36       0.1994
      3  C         53.6510   45.5660    6.9820 C.2    36  THR36       0.2617
      4  O         54.3120   45.1090    7.9180 O.2    36  THR36      -0.2717
      5  CB        53.5120   43.5320    5.5610 C.3    36  THR36       0.1784
      6  OG1       54.2170   44.0790    4.4510 O.3    36  THR36      -0.2211
      7  CG2       52.6230   42.3380    5.1170 C.3    36  THR36       0.0376
      8  N         53.7190   46.8430    6.6110 N.am   37  ILE37      -0.1979
      9  CA        54.6130   47.8190    7.2260 C.3    37  ILE37       0.1595
     10  C         53.7500   48.7810    8.0640 C.2    37  ILE37       0.2287
     11  O         52.8390   49.4180    7.5270 O.2    37  ILE37      -0.2864
     12  CB        55.4460   48.6060    6.1590 C.3    37  ILE37       0.0276
     13  CG1       56.3280   47.6240    5.3870 C.3    37  ILE37       0.0022
     14  CG2       56.2720   49.7370    6.8220 C.3    37  ILE37       0.0022
     15  CD1       57.1580   48.2090    4.2790 C.3    37  ILE37       0.0001
     16  N         62.0490   50.5600   10.3010 N.3    55  LEU55      -0.1245
     17  CA        60.8740   50.0940    9.6210 C.3    55  LEU55       0.1561
     18  C         60.2820   48.9380   10.4230 C.2    55  LEU55       0.2260
     19  O         60.9250   47.9020   10.5640 O.2    55  LEU55      -0.2867
     20  CB        61.2590   49.6300    8.2550 C.3    55  LEU55       0.0270
     21  CG        61.6620   50.5840    7.1820 C.3    55  LEU55       0.0019
     22  CD1       63.1420   50.8410    7.4700 C.3    55  LEU55       0.0001
     23  CD2       61.2780   50.0390    5.7180 C.3    55  LEU55       0.0001
     24  N         57.3370   46.1450   10.9350 N.3    57  PHE57      -0.1227
     25  CA        56.5620   45.3310   10.0260 C.3    57  PHE57       0.1736
     26  C         55.9920   44.1440   10.8180 C.2    57  PHE57       0.2595
     27  O         56.4010   43.8510   11.9700 O.2    57  PHE57      -0.2718
     28  CB        57.3780   44.8740    8.8280 C.3    57  PHE57       0.0547
     29  CG        58.6120   44.0600    9.1840 C.ar   57  PHE57      -0.0202
     30  CD1       58.5250   42.7020    9.3490 C.ar   57  PHE57      -0.0042
     31  CD2       59.8360   44.6600    9.3230 C.ar   57  PHE57      -0.0042
     32  CE1       59.6350   41.9600    9.6700 C.ar   57  PHE57      -0.0003
     33  CE2       60.9180   43.9310    9.6080 C.ar   57  PHE57      -0.0003
     34  CZ        60.8420   42.5770    9.7710 C.ar   57  PHE57      -0.0000
     35  N         55.0320   43.4300   10.2060 N.am   58  ILE58      -0.1966
     36  CA        54.4690   42.2480   10.8150 C.3    58  ILE58       0.1727
     37  C         54.9330   41.0810    9.9310 C.2    58  ILE58       0.2616
     38  O         54.9170   41.2050    8.6960 O.2    58  ILE58      -0.2715
     39  CB        52.9140   42.3330   10.9020 C.3    58  ILE58       0.0290
     40  CG1       52.4060   41.3450   11.9390 C.3    58  ILE58       0.0022
     41  CG2       52.3110   42.1890    9.4950 C.3    58  ILE58       0.0023
     42  CD1       52.4690   41.8810   13.4200 C.3    58  ILE58       0.0001
     43  N         55.3810   39.9850   10.5670 N.am   59  GLU59      -0.1977
     44  CA        55.8200   38.8070    9.8300 C.3    59  GLU59       0.1602
     45  C         55.5610   37.5830   10.6520 C.2    59  GLU59       0.2287
     46  O         56.0150   37.4740   11.7850 O.2    59  GLU59      -0.2864
     47  CB        57.2940   38.9080    9.5160 C.3    59  GLU59       0.0415
     48  CG        57.8740   37.7550    8.7930 C.3    59  GLU59       0.1163
     49  CD        59.3560   37.9450    8.6510 C.2    59  GLU59       0.3649
     50  OE1       60.1170   37.8820    9.6370 O.co2  59  GLU59      -0.2457
     51  OE2       59.7190   38.2400    7.5560 O.co2  59  GLU59      -0.2457
     52  N         63.3290   46.3640   11.2020 N.3    66  VAL66      -0.1245
     53  CA        64.6450   46.3960   10.6090 C.3    66  VAL66       0.1561
     54  C         65.1180   47.8440   10.6280 C.2    66  VAL66       0.2260
     55  O         64.3010   48.7690   10.5050 O.2    66  VAL66      -0.2867
     56  CB        64.5760   45.8020    9.1450 C.3    66  VAL66       0.0252
     57  CG1       63.7080   46.6980    8.2130 C.3    66  VAL66       0.0019
     58  CG2       65.9370   45.6280    8.5550 C.3    66  VAL66       0.0019
     59  N         67.5260   50.5710    8.6460 N.3    68  HIS68      -0.1241
     60  CA        68.2080   50.9350    7.4200 C.3    68  HIS68       0.1621
     61  C         69.1000   52.1500    7.6680 C.2    68  HIS68       0.2264
     62  O         68.6510   53.1100    8.2810 O.2    68  HIS68      -0.2867
     63  CB        67.1980   51.3060    6.3620 C.3    68  HIS68       0.0745
     64  CG        66.3580   50.1710    5.8700 C.ar   68  HIS68       0.0817
     65  ND1       65.4180   50.3640    4.8930 N.ar   68  HIS68      -0.2268
     66  CD2       66.3260   48.8550    6.1880 C.ar   68  HIS68       0.1154
     67  CE1       64.8410   49.1920    4.6220 C.ar   68  HIS68       0.1986
     68  NE2       65.3780   48.2570    5.3930 N.ar   68  HIS68      -0.2212
     69  N         71.1110   52.1220    0.5010 N.3    82  TYR82      -0.1241
     70  CA        71.0200   51.9170    1.9160 C.3    82  TYR82       0.1605
     71  C         71.5250   50.5440    2.2890 C.2    82  TYR82       0.2264
     72  O         71.6030   49.6440    1.4410 O.2    82  TYR82      -0.2867
     73  CB        69.5780   52.0940    2.4100 C.3    82  TYR82       0.0534
     74  CG        68.6040   51.0010    2.0220 C.ar   82  TYR82      -0.0201
     75  CD1       68.2950   49.9830    2.9130 C.ar   82  TYR82      -0.0009
     76  CD2       67.9790   50.9940    0.8360 C.ar   82  TYR82      -0.0009
     77  CE1       67.4080   48.9810    2.5790 C.ar   82  TYR82       0.0417
     78  CE2       67.0570   49.9900    0.4900 C.ar   82  TYR82       0.0417
     79  CZ        66.7650   48.9830    1.3970 C.ar   82  TYR82       0.1957
     80  OH        65.8560   48.0070    1.1010 O.3    82  TYR82      -0.2866
     81  N         71.1800   47.3910    5.5580 N.3    84  ILE84      -0.1245
     82  CA        70.4300   46.9370    6.7190 C.3    84  ILE84       0.1561
     83  C         71.4500   46.8840    7.8750 C.2    84  ILE84       0.2260
     84  O         72.5530   46.3050    7.7730 O.2    84  ILE84      -0.2867
     85  CB        69.7650   45.5650    6.4940 C.3    84  ILE84       0.0252
     86  CG1       68.6600   45.7220    5.4420 C.3    84  ILE84       0.0019
     87  CG2       69.3210   45.0000    7.8390 C.3    84  ILE84       0.0019
     88  CD1       67.9990   44.4510    4.9950 C.3    84  ILE84       0.0001
     89  N         65.4670   32.8190    1.8050 N.3   131  GLU131     -0.1245
     90  CA        65.3570   34.2120    2.2010 C.3   131  GLU131      0.1567
     91  C         65.3680   35.1860    1.0420 C.2   131  GLU131      0.2260
     92  O         64.5980   36.1530    1.0250 O.2   131  GLU131     -0.2867
     93  CB        66.4530   34.5550    3.1880 C.3   131  GLU131      0.0388
     94  CG        66.4380   36.0380    3.6120 C.3   131  GLU131      0.1160
     95  CD        65.1900   36.5140    4.3260 C.2   131  GLU131      0.3649
     96  OE1       64.4860   35.6920    4.9770 O.co2 131  GLU131     -0.2457
     97  OE2       64.9220   37.7620    4.2540 O.co2 131  GLU131     -0.2457
     98  N         62.4830   37.6970    0.1330 N.3   135  ALA135     -0.1245
     99  CA        62.7990   39.1170    0.0820 C.3   135  ALA135      0.1562
    100  C         62.3650   39.7310   -1.2320 C.2   135  ALA135      0.2260
    101  O         61.8290   40.8500   -1.2810 O.2   135  ALA135     -0.2867
    102  CB        64.2350   39.3750    0.3790 C.3   135  ALA135      0.0290
    103  N         58.6740   39.9930   -1.2000 N.3   138  ARG138     -0.1231
    104  CA        58.2600   41.1950   -0.4690 C.3   138  ARG138      0.1694
    105  C         58.4100   42.4430   -1.3340 C.2   138  ARG138      0.2592
    106  O         57.5900   43.3260   -1.3120 O.2   138  ARG138     -0.2718
    107  CB        59.0730   41.3830    0.8140 C.3   138  ARG138      0.0321
    108  CG        58.7230   40.4780    1.9760 C.3   138  ARG138      0.0489
    109  CD        59.4190   40.9340    3.2410 C.3   138  ARG138      0.2205
    110  NE        60.8720   40.7660    3.1790 N.pl3 138  ARG138     -0.0865
    111  CZ        61.5170   39.6780    3.5720 C.cat 138  ARG138      0.5346
    112  NH1       60.8520   38.5960    3.9590 N.pl3 138  ARG138      0.1354
    113  NH2       62.8300   39.6580    3.5730 N.pl3 138  ARG138      0.1354
    114  N         59.4850   42.4910   -2.1110 N.am  139  GLY139     -0.1957
    115  CA        59.7320   43.6010   -3.0040 C.3   139  GLY139      0.1869
    116  C         58.6030   43.7570   -4.0180 C.2   139  GLY139      0.2309
    117  O         58.0900   44.8480   -4.2400 O.2   139  GLY139     -0.2863
    118  N         55.5860   45.0760   -2.1690 N.3   142  PHE142     -0.1241
    119  CA        55.8720   46.4460   -1.7810 C.3   142  PHE142      0.1605
    120  C         55.5820   47.4080   -2.9380 C.2   142  PHE142      0.2264
    121  O         54.8120   48.3740   -2.8180 O.2   142  PHE142     -0.2867
    122  CB        57.3570   46.4870   -1.4120 C.3   142  PHE142      0.0534
    123  CG        57.9010   47.8120   -1.0480 C.ar  142  PHE142     -0.0203
    124  CD1       57.7940   48.2830    0.2440 C.ar  142  PHE142     -0.0042
    125  CD2       58.6500   48.5440   -1.9630 C.ar  142  PHE142     -0.0042
    126  CE1       58.3830   49.4880    0.5840 C.ar  142  PHE142     -0.0003
    127  CE2       59.2310   49.7260   -1.6290 C.ar  142  PHE142     -0.0003
    128  CZ        59.0980   50.2000   -0.3760 C.ar  142  PHE142     -0.0000
@<TRIPOS>BOND
     1   117   116    2
     2   116   115    1
     3   115   114    1
     4   120   121    2
     5   120   119    1
     6   118   119    1
     7   114   105   am
     8   125   127   ar
     9   125   123   ar
    10   119   122    1
    11   127   128   ar
    12   122   123    1
    13   105   106    2
    14   105   104    1
    15   101   100    2
    16   100    99    1
    17   103   104    1
    18   123   124   ar
    19   104   107    1
    20   128   126   ar
    21    99    98    1
    22    99   102    1
    23   124   126   ar
    24    78    76   ar
    25    78    79   ar
    26    69    70    1
    27   107   108    1
    28    76    74   ar
    29    92    91    2
    30    91    90    1
    31    80    79    1
    32    79    77   ar
    33    72    71    2
    34    89    90    1
    35    70    71    1
    36    70    73    1
    37   108   109    1
    38    74    73    1
    39    74    75   ar
    40    90    93    1
    41    77    75   ar
    42   110   109    1
    43   110   111    2
    44    93    94    1
    45   111   113    1
    46   111   112    1
    47    94    95    1
    48    97    95   ar
    49    15    13    1
    50    95    96   ar
    51     6     5    1
    52    67    65   ar
    53    67    68   ar
    54    65    64   ar
    55    88    86    1
    56     7     5    1
    57     1     2    1
    58    13    12    1
    59    68    66   ar
    60    86    85    1
    61    81    82    1
    62     5     2    1
    63    23    21    1
    64    64    66   ar
    65    64    63    1
    66    12    14    1
    67    12     9    1
    68     2     3    1
    69    63    60    1
    70    85    82    1
    71    85    87    1
    72     8     3   am
    73     8     9    1
    74    82    83    1
    75     3     4    2
    76    21    22    1
    77    21    20    1
    78     9    10    1
    79    60    61    1
    80    60    59    1
    81    11    10    2
    82    51    49   ar
    83    61    62    2
    84    84    83    2
    85    57    56    1
    86    20    17    1
    87    58    56    1
    88    49    48    1
    89    49    50   ar
    90    38    37    2
    91    48    47    1
    92    28    29    1
    93    28    25    1
    94    56    53    1
    95    29    31   ar
    96    29    30   ar
    97    31    33   ar
    98    30    32   ar
    99    41    39    1
   100    47    44    1
   101    33    34   ar
   102    17    16    1
   103    17    18    1
   104    32    34   ar
   105    44    43    1
   106    44    45    1
   107    37    43   am
   108    37    36    1
   109    25    26    1
   110    25    24    1
   111    35    36    1
   112    35    26   am
   113    18    19    2
   114    55    54    2
   115    53    54    1
   116    53    52    1
   117    45    46    2
   118    36    39    1
   119    26    27    2
   120    39    40    1
   121    40    42    1
