@<TRIPOS>MOLECULE
tmp/2qimA00.pdb
 184 176 0 0 0
SMALL
GASTEIGER

@<TRIPOS>ATOM
      1  N         61.4400   46.1160  -10.7820 N.3     9  TYR9       -0.1241
      2  CA        60.0280   46.2200  -10.4520 C.3     9  TYR9        0.1605
      3  C         59.4200   47.2360  -11.3880 C.2     9  TYR9        0.2264
      4  O         59.8510   48.3690  -11.4670 O.2     9  TYR9       -0.2867
      5  CB        59.9110   46.7240   -9.0100 C.3     9  TYR9        0.0534
      6  CG        60.5520   45.7860   -8.0190 C.ar    9  TYR9       -0.0201
      7  CD1       59.9150   44.6310   -7.6350 C.ar    9  TYR9       -0.0009
      8  CD2       61.8100   46.0410   -7.4830 C.ar    9  TYR9       -0.0009
      9  CE1       60.4720   43.7660   -6.7380 C.ar    9  TYR9        0.0417
     10  CE2       62.4140   45.1360   -6.6100 C.ar    9  TYR9        0.0417
     11  CZ        61.7260   44.0010   -6.2240 C.ar    9  TYR9        0.1957
     12  OH        62.2850   43.1200   -5.2990 O.3     9  TYR9       -0.2866
     13  N         59.6240   57.9290   -6.9130 N.3    19  TYR19      -0.1241
     14  CA        60.7400   58.2090   -6.0100 C.3    19  TYR19       0.1605
     15  C         60.2980   59.0690   -4.8220 C.2    19  TYR19       0.2264
     16  O         60.7080   58.8370   -3.6920 O.2    19  TYR19      -0.2867
     17  CB        61.8530   58.9230   -6.7690 C.3    19  TYR19       0.0534
     18  CG        63.1380   59.1020   -6.0020 C.ar   19  TYR19      -0.0201
     19  CD1       64.1520   58.1680   -6.0290 C.ar   19  TYR19      -0.0009
     20  CD2       63.3120   60.1960   -5.1630 C.ar   19  TYR19      -0.0009
     21  CE1       65.3070   58.3460   -5.2980 C.ar   19  TYR19       0.0417
     22  CE2       64.4510   60.3920   -4.4600 C.ar   19  TYR19       0.0417
     23  CZ        65.4850   59.4810   -4.5440 C.ar   19  TYR19       0.1957
     24  OH        66.6060   59.7220   -3.7960 O.3    19  TYR19      -0.2866
     25  N         58.5990   56.8550   -2.3760 N.3    22  LEU22      -0.1231
     26  CA        59.4400   55.8370   -1.7660 C.3    22  LEU22       0.1693
     27  C         60.4860   56.4110   -0.8380 C.2    22  LEU22       0.2591
     28  O         60.9350   55.7180    0.0810 O.2    22  LEU22      -0.2718
     29  CB        60.1340   54.9830   -2.8300 C.3    22  LEU22       0.0284
     30  CG        59.3040   54.0360   -3.7120 C.3    22  LEU22       0.0019
     31  CD1       60.1530   53.4210   -4.8190 C.3    22  LEU22       0.0001
     32  CD2       58.7600   53.0340   -2.7690 C.3    22  LEU22       0.0001
     33  N         60.9130   57.6330   -1.1370 N.am   23  VAL23      -0.1980
     34  CA        62.0650   58.2300   -0.4940 C.3    23  VAL23       0.1595
     35  C         61.6370   59.4530    0.2930 C.2    23  VAL23       0.2287
     36  O         61.5000   59.4120    1.5280 O.2    23  VAL23      -0.2864
     37  CB        63.2240   58.5100   -1.5050 C.3    23  VAL23       0.0276
     38  CG1       64.4180   59.1510   -0.7680 C.3    23  VAL23       0.0022
     39  CG2       63.6480   57.2340   -2.2020 C.3    23  VAL23       0.0022
     40  N         58.5600   58.7100    2.3050 N.3    26  ALA26      -0.1245
     41  CA        58.5210   57.3310    2.7630 C.3    26  ALA26       0.1562
     42  C         57.7860   57.1880    4.0730 C.2    26  ALA26       0.2260
     43  O         57.0510   56.2260    4.2620 O.2    26  ALA26      -0.2867
     44  CB        59.9470   56.8120    2.9440 C.3    26  ALA26       0.0290
     45  N         54.6800   54.9950    2.8350 N.3    30  ILE30      -0.1245
     46  CA        54.9370   53.5620    2.8890 C.3    30  ILE30       0.1561
     47  C         54.0180   52.8120    3.8840 C.2    30  ILE30       0.2260
     48  O         53.4230   51.8200    3.5160 O.2    30  ILE30      -0.2867
     49  CB        56.4350   53.2060    3.0180 C.3    30  ILE30       0.0252
     50  CG1       57.1570   53.6040    1.7400 C.3    30  ILE30       0.0019
     51  CG2       56.5880   51.7450    3.3600 C.3    30  ILE30       0.0019
     52  CD1       58.6920   53.4720    1.8880 C.3    30  ILE30       0.0001
     53  N         57.5440   53.7830    9.4070 N.3    40  VAL40      -0.1245
     54  CA        58.8950   54.0570    8.8870 C.3    40  VAL40       0.1561
     55  C         59.2920   55.3430    9.5930 C.2    40  VAL40       0.2260
     56  O         58.6680   56.3720    9.3620 O.2    40  VAL40      -0.2867
     57  CB        58.9680   54.1970    7.3610 C.3    40  VAL40       0.0252
     58  CG1       60.3650   54.5270    6.9310 C.3    40  VAL40       0.0019
     59  CG2       58.4960   52.9310    6.6690 C.3    40  VAL40       0.0019
     60  N         66.8330   54.6850    9.7300 N.3    53  LYS53      -0.1245
     61  CA        65.3950   54.5830    9.7340 C.3    53  LYS53       0.1561
     62  C         65.0290   53.2280   10.3120 C.2    53  LYS53       0.2260
     63  O         65.7230   52.2350   10.0980 O.2    53  LYS53      -0.2867
     64  CB        64.8600   54.6720    8.3320 C.3    53  LYS53       0.0271
     65  CG        65.2050   55.9720    7.5610 C.3    53  LYS53       0.0035
     66  CD        64.2490   56.2650    6.3710 C.3    53  LYS53       0.0206
     67  CE        63.7380   57.7360    6.4220 C.3    53  LYS53       0.1093
     68  NZ        62.6630   58.1920    5.4540 N.3    53  LYS53      -0.1314
     69  N         62.0490   50.5600   10.3010 N.3    55  LEU55      -0.1245
     70  CA        60.8740   50.0940    9.6210 C.3    55  LEU55       0.1561
     71  C         60.2820   48.9380   10.4230 C.2    55  LEU55       0.2260
     72  O         60.9250   47.9020   10.5640 O.2    55  LEU55      -0.2867
     73  CB        61.2590   49.6300    8.2550 C.3    55  LEU55       0.0270
     74  CG        61.6620   50.5840    7.1820 C.3    55  LEU55       0.0019
     75  CD1       63.1420   50.8410    7.4700 C.3    55  LEU55       0.0001
     76  CD2       61.2780   50.0390    5.7180 C.3    55  LEU55       0.0001
     77  N         67.5260   50.5710    8.6460 N.3    68  HIS68      -0.1241
     78  CA        68.2080   50.9350    7.4200 C.3    68  HIS68       0.1621
     79  C         69.1000   52.1500    7.6680 C.2    68  HIS68       0.2264
     80  O         68.6510   53.1100    8.2810 O.2    68  HIS68      -0.2867
     81  CB        67.1980   51.3060    6.3620 C.3    68  HIS68       0.0745
     82  CG        66.3580   50.1710    5.8700 C.ar   68  HIS68       0.0817
     83  ND1       65.4180   50.3640    4.8930 N.ar   68  HIS68      -0.2268
     84  CD2       66.3260   48.8550    6.1880 C.ar   68  HIS68       0.1154
     85  CE1       64.8410   49.1920    4.6220 C.ar   68  HIS68       0.1986
     86  NE2       65.3780   48.2570    5.3930 N.ar   68  HIS68      -0.2212
     87  N         67.4070   60.1710   -9.1220 N.3    78  LEU78      -0.1245
     88  CA        66.4660   59.1930   -8.6280 C.3    78  LEU78       0.1561
     89  C         67.1970   57.9560   -8.0480 C.2    78  LEU78       0.2260
     90  O         66.7640   56.8210   -8.2480 O.2    78  LEU78      -0.2867
     91  CB        65.4480   58.8130   -9.7000 C.3    78  LEU78       0.0270
     92  CG        64.6070   59.9590  -10.2700 C.3    78  LEU78       0.0019
     93  CD1       63.5880   59.4030  -11.2710 C.3    78  LEU78       0.0001
     94  CD2       63.9510   60.8000   -9.2030 C.3    78  LEU78       0.0001
     95  N         68.8760   55.9640   -4.5550 N.3    80  TYR80      -0.1241
     96  CA        68.8050   55.7890   -3.1160 C.3    80  TYR80       0.1605
     97  C         69.5140   54.4720   -2.7880 C.2    80  TYR80       0.2264
     98  O         69.1430   53.4030   -3.2720 O.2    80  TYR80      -0.2867
     99  CB        67.3340   55.7400   -2.6550 C.3    80  TYR80       0.0534
    100  CG        67.1350   55.5040   -1.1680 C.ar   80  TYR80      -0.0201
    101  CD1       67.4010   56.4710   -0.2440 C.ar   80  TYR80      -0.0009
    102  CD2       66.6550   54.2960   -0.6800 C.ar   80  TYR80      -0.0009
    103  CE1       67.2000   56.2470    1.1030 C.ar   80  TYR80       0.0417
    104  CE2       66.4550   54.0730    0.6630 C.ar   80  TYR80       0.0417
    105  CZ        66.7310   55.0530    1.5590 C.ar   80  TYR80       0.1957
    106  OH        66.5040   54.8950    2.9050 O.3    80  TYR80      -0.2866
    107  N         71.1110   52.1220    0.5010 N.3    82  TYR82      -0.1241
    108  CA        71.0200   51.9170    1.9160 C.3    82  TYR82       0.1605
    109  C         71.5250   50.5440    2.2890 C.2    82  TYR82       0.2264
    110  O         71.6030   49.6440    1.4410 O.2    82  TYR82      -0.2867
    111  CB        69.5780   52.0940    2.4100 C.3    82  TYR82       0.0534
    112  CG        68.6040   51.0010    2.0220 C.ar   82  TYR82      -0.0201
    113  CD1       68.2950   49.9830    2.9130 C.ar   82  TYR82      -0.0009
    114  CD2       67.9790   50.9940    0.8360 C.ar   82  TYR82      -0.0009
    115  CE1       67.4080   48.9810    2.5790 C.ar   82  TYR82       0.0417
    116  CE2       67.0570   49.9900    0.4900 C.ar   82  TYR82       0.0417
    117  CZ        66.7650   48.9830    1.3970 C.ar   82  TYR82       0.1957
    118  OH        65.8560   48.0070    1.1010 O.3    82  TYR82      -0.2866
    119  N         69.6320   51.4870   -5.4200 N.3   101  THR101     -0.1203
    120  CA        68.3840   51.6000   -6.1470 C.3   101  THR101      0.1994
    121  C         68.3980   52.8360   -7.0430 C.2   101  THR101      0.2618
    122  O         68.9500   53.9000   -6.7180 O.2   101  THR101     -0.2717
    123  CB        67.1600   51.6350   -5.2110 C.3   101  THR101      0.1784
    124  OG1       66.9290   52.9560   -4.7020 O.3   101  THR101     -0.2211
    125  CG2       67.2180   50.6110   -4.0840 C.3   101  THR101      0.0376
    126  N         67.7380   52.6640   -8.1810 N.am  102  LYS102     -0.1965
    127  CA        67.5920   53.7100   -9.1420 C.3   102  LYS102      0.1728
    128  C         66.2400   53.5030   -9.7880 C.2   102  LYS102      0.2616
    129  O         65.8950   52.4030  -10.1910 O.2   102  LYS102     -0.2715
    130  CB        68.7100   53.6230  -10.1930 C.3   102  LYS102      0.0311
    131  CG        68.7380   54.8250  -11.1250 C.3   102  LYS102      0.0038
    132  CD        69.9740   54.9750  -11.9560 C.3   102  LYS102      0.0206
    133  CE        69.7480   55.8990  -13.1640 C.3   102  LYS102      0.1093
    134  NZ        71.0240   56.4390  -13.7100 N.3   102  LYS102     -0.1314
    135  N         65.5390   54.6050  -10.0310 N.am  103  LEU103     -0.1977
    136  CA        64.2890   54.5720  -10.7570 C.3   103  LEU103      0.1596
    137  C         64.5310   55.1790  -12.1220 C.2   103  LEU103      0.2287
    138  O         65.1820   56.2280  -12.2710 O.2   103  LEU103     -0.2864
    139  CB        63.1780   55.3090  -10.0210 C.3   103  LEU103      0.0297
    140  CG        62.4270   54.5640   -8.9260 C.3   103  LEU103      0.0022
    141  CD1       61.7400   55.5030   -7.9800 C.3   103  LEU103      0.0001
    142  CD2       61.3520   53.6750   -9.6610 C.3   103  LEU103      0.0001
    143  N         61.8410   50.2660  -11.3330 N.3   113  GLY113     -0.1210
    144  CA        62.6350   50.3240  -10.1120 C.3   113  GLY113      0.1956
    145  C         63.7170   49.2620  -10.1660 C.2   113  GLY113      0.2612
    146  O         63.4250   48.0710  -10.0640 O.2   113  GLY113     -0.2717
    147  N         64.9610   49.7060  -10.3240 N.am  114  LYS114     -0.1965
    148  CA        66.1230   48.8100  -10.3420 C.3   114  LYS114      0.1728
    149  C         66.7130   48.7310   -8.9720 C.2   114  LYS114      0.2616
    150  O         66.8500   49.7250   -8.2590 O.2   114  LYS114     -0.2715
    151  CB        67.1770   49.3180  -11.3190 C.3   114  LYS114      0.0311
    152  CG        66.6370   49.3900  -12.7740 C.3   114  LYS114      0.0038
    153  CD        67.6790   49.8260  -13.7140 C.3   114  LYS114      0.0206
    154  CE        67.1910   49.7050  -15.1550 C.3   114  LYS114      0.1093
    155  NZ        68.0990   50.3530  -16.1530 N.3   114  LYS114     -0.1314
    156  N         67.0600   47.5180   -8.5990 N.am  115  VAL115     -0.1977
    157  CA        67.6700   47.2880   -7.2980 C.3   115  VAL115      0.1596
    158  C         68.8280   46.3160   -7.4740 C.2   115  VAL115      0.2287
    159  O         68.6320   45.2430   -7.9940 O.2   115  VAL115     -0.2864
    160  CB        66.6890   46.6810   -6.2570 C.3   115  VAL115      0.0276
    161  CG1       67.3810   46.4480   -4.9210 C.3   115  VAL115      0.0022
    162  CG2       65.4170   47.5430   -6.0860 C.3   115  VAL115      0.0022
    163  N         55.5860   45.0760   -2.1690 N.3   142  PHE142     -0.1227
    164  CA        55.8720   46.4460   -1.7810 C.3   142  PHE142      0.1736
    165  C         55.5820   47.4080   -2.9380 C.2   142  PHE142      0.2595
    166  O         54.8120   48.3740   -2.8180 O.2   142  PHE142     -0.2718
    167  CB        57.3570   46.4870   -1.4120 C.3   142  PHE142      0.0547
    168  CG        57.9010   47.8120   -1.0480 C.ar  142  PHE142     -0.0202
    169  CD1       57.7940   48.2830    0.2440 C.ar  142  PHE142     -0.0042
    170  CD2       58.6500   48.5440   -1.9630 C.ar  142  PHE142     -0.0042
    171  CE1       58.3830   49.4880    0.5840 C.ar  142  PHE142     -0.0003
    172  CE2       59.2310   49.7260   -1.6290 C.ar  142  PHE142     -0.0003
    173  CZ        59.0980   50.2000   -0.3760 C.ar  142  PHE142     -0.0000
    174  N         56.1400   47.1270   -4.1110 N.am  143  PHE143     -0.1976
    175  CA        55.8710   47.9580   -5.2720 C.3   143  PHE143      0.1639
    176  C         54.4360   47.8850   -5.7270 C.2   143  PHE143      0.2290
    177  O         53.8590   48.8950   -6.1060 O.2   143  PHE143     -0.2864
    178  CB        56.8420   47.6120   -6.3980 C.3   143  PHE143      0.0560
    179  CG        58.1480   48.3300   -6.3120 C.ar  143  PHE143     -0.0200
    180  CD1       58.3250   49.5350   -6.9420 C.ar  143  PHE143     -0.0042
    181  CD2       59.1950   47.8050   -5.5960 C.ar  143  PHE143     -0.0042
    182  CE1       59.5370   50.1910   -6.8460 C.ar  143  PHE143     -0.0003
    183  CE2       60.3940   48.4920   -5.4920 C.ar  143  PHE143     -0.0003
    184  CZ        60.5710   49.6850   -6.0980 C.ar  143  PHE143     -0.0000
@<TRIPOS>BOND
     1   155   154    1
     2   154   153    1
     3   153   152    1
     4   134   133    1
     5   133   132    1
     6   152   151    1
     7   138   137    2
     8   137   136    1
     9   132   131    1
    10     4     3    2
    11     3     2    1
    12   143   144    1
    13   151   148    1
    14    93    92    1
    15   131   130    1
    16     1     2    1
    17   136   135    1
    18   136   139    1
    19     2     5    1
    20   148   147    1
    21   148   149    1
    22   147   145   am
    23    92    91    1
    24    92    94    1
    25   130   127    1
    26   129   128    2
    27   145   144    1
    28   145   146    2
    29   135   128   am
    30   139   140    1
    31   128   127    1
    32    91    88    1
    33   142   140    1
    34   127   126    1
    35    87    88    1
    36     5     6    1
    37   149   156   am
    38   149   150    2
    39   140   141    1
    40    88    89    1
    41   156   157    1
    42    90    89    2
    43   126   121   am
    44     6     7   ar
    45     6     8   ar
    46   159   158    2
    47     7     9   ar
    48     8    10   ar
    49   158   157    1
    50   157   160    1
    51   121   122    2
    52   121   120    1
    53   180   182   ar
    54   180   179   ar
    55    13    14    1
    56   182   184   ar
    57    17    14    1
    58    17    18    1
    59     9    11   ar
    60    10    11   ar
    61   178   179    1
    62   178   175    1
    63   179   181   ar
    64   160   162    1
    65   160   161    1
    66    11    12    1
    67   120   119    1
    68   120   123    1
    69   177   176    2
    70   184   183   ar
    71    19    18   ar
    72    19    21   ar
    73    14    15    1
    74    18    20   ar
    75   176   175    1
    76   181   183   ar
    77    21    23   ar
    78   175   174    1
    79   123   124    1
    80   123   125    1
    81    20    22   ar
    82    15    16    2
    83    31    30    1
    84    95    96    1
    85    23    22   ar
    86    23    24    1
    87   174   165   am
    88    30    29    1
    89    30    32    1
    90    98    97    2
    91    96    97    1
    92    96    99    1
    93   165   166    2
    94   165   164    1
    95    29    26    1
    96    99   100    1
    97    25    26    1
    98    39    37    1
    99   163   164    1
   100   170   172   ar
   101   170   168   ar
   102   164   167    1
   103    26    27    1
   104   172   173   ar
   105    37    38    1
   106    37    34    1
   107   167   168    1
   108   100   102   ar
   109   100   101   ar
   110    33    27   am
   111    33    34    1
   112   168   169   ar
   113    27    28    2
   114   102   104   ar
   115    34    35    1
   116   173   171   ar
   117   101   103   ar
   118   169   171   ar
   119    35    36    2
   120   116   114   ar
   121   116   117   ar
   122   107   108    1
   123   104   105   ar
   124   114   112   ar
   125   118   117    1
   126   103   105   ar
   127   117   115   ar
   128   110   109    2
   129   105   106    1
   130    50    52    1
   131    50    49    1
   132   108   109    1
   133   108   111    1
   134   112   111    1
   135   112   113   ar
   136    40    41    1
   137   115   113   ar
   138    41    44    1
   139    41    42    1
   140    45    46    1
   141    46    49    1
   142    46    47    1
   143    49    51    1
   144    48    47    2
   145    42    43    2
   146    85    83   ar
   147    85    86   ar
   148    83    82   ar
   149    86    84   ar
   150    68    67    1
   151    76    74    1
   152    82    84   ar
   153    82    81    1
   154    81    78    1
   155    66    67    1
   156    66    65    1
   157    59    57    1
   158    58    57    1
   159    74    75    1
   160    74    73    1
   161    57    54    1
   162    78    79    1
   163    78    77    1
   164    65    64    1
   165    79    80    2
   166    73    70    1
   167    64    61    1
   168    54    53    1
   169    54    55    1
   170    56    55    2
   171    70    69    1
   172    70    71    1
   173    60    61    1
   174    61    62    1
   175    63    62    2
   176    71    72    2
