@<TRIPOS>MOLECULE
tmp/2qiqA00.pdb
 227 224 0 0 0
SMALL
GASTEIGER

@<TRIPOS>ATOM
      1  N         21.0290  -51.9500   27.0010 N.3    25  THR25      -0.1203
      2  CA        19.9410  -51.1640   26.4040 C.3    25  THR25       0.1994
      3  C         18.6770  -52.0140   26.3260 C.2    25  THR25       0.2619
      4  O         18.6600  -53.0520   25.6570 O.2    25  THR25      -0.2717
      5  CB        20.3290  -50.6380   24.9970 C.3    25  THR25       0.1784
      6  OG1       21.5140  -49.8360   25.1000 O.3    25  THR25      -0.2211
      7  CG2       19.2180  -49.7770   24.3910 C.3    25  THR25       0.0376
      8  N         17.6350  -51.5840   27.0410 N.am   26  THR26      -0.1938
      9  CA        16.3090  -52.1970   26.9490 C.3    26  THR26       0.2028
     10  C         15.3300  -51.1810   26.3560 C.2    26  THR26       0.2642
     11  O         15.4230  -49.9880   26.6330 O.2    26  THR26      -0.2714
     12  CB        15.7750  -52.6550   28.3230 C.3    26  THR26       0.1808
     13  OG1       16.7700  -53.4420   28.9900 O.3    26  THR26      -0.2208
     14  CG2       14.5730  -53.5230   28.1520 C.3    26  THR26       0.0379
     15  N         14.4180  -51.6660   25.5220 N.am   27  LEU27      -0.1977
     16  CA        13.3360  -50.8490   24.9900 C.3    27  LEU27       0.1596
     17  C         12.1750  -51.7540   24.6030 C.2    27  LEU27       0.2287
     18  O         12.2370  -52.9560   24.8400 O.2    27  LEU27      -0.2864
     19  CB        13.8340  -49.9710   23.8280 C.3    27  LEU27       0.0297
     20  CG        14.6090  -50.4530   22.5960 C.3    27  LEU27       0.0022
     21  CD1       13.8700  -51.5500   21.8040 C.3    27  LEU27       0.0001
     22  CD2       14.9600  -49.2770   21.6970 C.3    27  LEU27       0.0001
     23  N         18.2590  -48.9290   17.0190 N.3    41  HIS41      -0.1241
     24  CA        19.1890  -48.3930   18.0080 C.3    41  HIS41       0.1621
     25  C         19.2680  -49.1400   19.3500 C.2    41  HIS41       0.2264
     26  O         20.0420  -48.7310   20.2040 O.2    41  HIS41      -0.2867
     27  CB        19.0470  -46.8670   18.1940 C.3    41  HIS41       0.0745
     28  CG        17.8630  -46.4450   19.0120 C.ar   41  HIS41       0.0817
     29  ND1       16.9230  -45.5520   18.5440 N.ar   41  HIS41      -0.2268
     30  CD2       17.4770  -46.7730   20.2680 C.ar   41  HIS41       0.1154
     31  CE1       16.0010  -45.3630   19.4730 C.ar   41  HIS41       0.1986
     32  NE2       16.3110  -46.0980   20.5260 N.ar   41  HIS41      -0.2212
     33  N         22.9340  -50.0680   19.7050 N.3    44  CYS44      -0.1235
     34  CA        23.9540  -49.0600   19.9830 C.3    44  CYS44       0.1677
     35  C         24.4210  -49.0740   21.4380 C.2    44  CYS44       0.2270
     36  O         23.7310  -49.6030   22.3080 O.2    44  CYS44      -0.2867
     37  CB        23.4470  -47.6740   19.5950 C.3    44  CYS44       0.0956
     38  SG        23.2810  -47.5100   17.8180 S.3    44  CYS44      -0.0801
     39  N         26.8590  -43.5710   19.6140 N.3    49  MET49      -0.1245
     40  CA        25.5310  -42.9630   19.4870 C.3    49  MET49       0.1570
     41  C         25.5070  -41.7940   18.4980 C.2    49  MET49       0.2261
     42  O         24.5220  -41.6080   17.7810 O.2    49  MET49      -0.2867
     43  CB        24.9920  -42.5400   20.8560 C.3    49  MET49       0.0387
     44  CG        24.6460  -43.7220   21.7580 C.3    49  MET49       0.0595
     45  SD        24.3180  -43.2720   23.4840 S.3    49  MET49      -0.1393
     46  CE        23.8830  -44.8790   24.1850 C.3    49  MET49       0.0692
     47  N         26.6750  -43.9690   14.5380 N.3    52  PRO52      -0.2116
     48  CA        26.6340  -45.4310   14.4590 C.3    52  PRO52       0.1372
     49  C         26.5920  -45.9760   13.0380 C.2    52  PRO52       0.2244
     50  O         25.8500  -45.4630   12.2040 O.2    52  PRO52      -0.2868
     51  CB        25.3350  -45.7870   15.1890 C.3    52  PRO52       0.0268
     52  CG        24.4750  -44.5940   15.0260 C.3    52  PRO52       0.0207
     53  CD        25.3730  -43.3970   14.9260 C.3    52  PRO52       0.0892
     54  N         25.1560  -49.0090   11.5420 N.3    54  TYR54      -0.1241
     55  CA        24.2640  -50.0590   11.9760 C.3    54  TYR54       0.1605
     56  C         24.5490  -51.3810   11.2860 C.2    54  TYR54       0.2264
     57  O         24.2820  -52.4380   11.8530 O.2    54  TYR54      -0.2867
     58  CB        22.7910  -49.6420   11.8020 C.3    54  TYR54       0.0534
     59  CG        22.3350  -48.6150   12.8160 C.ar   54  TYR54      -0.0201
     60  CD1       22.3860  -47.2540   12.5230 C.ar   54  TYR54      -0.0009
     61  CD2       21.8970  -49.0010   14.0820 C.ar   54  TYR54      -0.0009
     62  CE1       21.9720  -46.2920   13.4570 C.ar   54  TYR54       0.0417
     63  CE2       21.4840  -48.0510   15.0220 C.ar   54  TYR54       0.0417
     64  CZ        21.5280  -46.6990   14.6950 C.ar   54  TYR54       0.1957
     65  OH        21.1380  -45.7570   15.6100 O.3    54  TYR54      -0.2866
     66  N          9.7160  -50.7030   29.2450 N.3   119  ASN119     -0.1240
     67  CA        10.2720  -52.0680   29.3710 C.3   119  ASN119      0.1653
     68  C          9.3200  -53.1970   28.9520 C.2   119  ASN119      0.2266
     69  O          9.3210  -54.2710   29.5700 O.2   119  ASN119     -0.2867
     70  CB        10.7490  -52.3210   30.8090 C.3   119  ASN119      0.1155
     71  CG        11.9430  -51.4510   31.2100 C.2   119  ASN119      0.2627
     72  OD1       12.3810  -51.5040   32.3670 O.2   119  ASN119     -0.2716
     73  ND2       12.4800  -50.6530   30.2670 N.am  119  ASN119     -0.0877
     74  N          6.5380  -38.9110   26.1750 N.3   140  PHE140     -0.1227
     75  CA         7.4320  -40.0720   26.1970 C.3   140  PHE140      0.1736
     76  C          8.5770  -39.8160   27.1770 C.2   140  PHE140      0.2595
     77  O          9.3140  -38.8280   27.0350 O.2   140  PHE140     -0.2718
     78  CB         8.0490  -40.3040   24.8200 C.3   140  PHE140      0.0547
     79  CG         7.0790  -40.7300   23.7400 C.ar  140  PHE140     -0.0202
     80  CD1        6.7290  -39.8440   22.7180 C.ar  140  PHE140     -0.0042
     81  CD2        6.5860  -42.0370   23.6870 C.ar  140  PHE140     -0.0042
     82  CE1        5.8790  -40.2390   21.6830 C.ar  140  PHE140     -0.0003
     83  CE2        5.7340  -42.4380   22.6620 C.ar  140  PHE140     -0.0003
     84  CZ         5.3790  -41.5280   21.6570 C.ar  140  PHE140     -0.0000
     85  N          8.7270  -40.7000   28.1650 N.am  141  LEU141     -0.1966
     86  CA         9.8650  -40.6310   29.1050 C.3   141  LEU141      0.1728
     87  C         10.9570  -41.6100   28.6780 C.2   141  LEU141      0.2616
     88  O         10.7650  -42.4030   27.7440 O.2   141  LEU141     -0.2715
     89  CB         9.4330  -40.9500   30.5510 C.3   141  LEU141      0.0311
     90  CG         8.5710  -39.9920   31.3980 C.3   141  LEU141      0.0022
     91  CD1        9.0820  -38.5400   31.2850 C.3   141  LEU141      0.0001
     92  CD2        7.0560  -40.0830   31.0840 C.3   141  LEU141      0.0001
     93  N         12.1000  -41.5470   29.3670 N.am  142  ASN142     -0.1958
     94  CA        13.1730  -42.5190   29.1690 C.3   142  ASN142      0.1819
     95  C         12.6130  -43.9260   29.2620 C.2   142  ASN142      0.2622
     96  O         11.9150  -44.2480   30.2230 O.2   142  ASN142     -0.2715
     97  CB        14.2780  -42.3230   30.2120 C.3   142  ASN142      0.1195
     98  CG        15.4120  -41.4460   29.7120 C.2   142  ASN142      0.2630
     99  OD1       16.5820  -41.8070   29.8450 O.2   142  ASN142     -0.2716
    100  ND2       15.0790  -40.2920   29.1340 N.am  142  ASN142     -0.0877
    101  N         12.8930  -44.7440   28.2480 N.am  143  GLY143     -0.1940
    102  CA        12.4030  -46.1260   28.1820 C.3   143  GLY143      0.2014
    103  C         11.1420  -46.3200   27.3560 C.2   143  GLY143      0.2640
    104  O         10.5600  -47.4100   27.3580 O.2   143  GLY143     -0.2714
    105  N         10.7250  -45.2640   26.6520 N.am  144  SER144     -0.1935
    106  CA         9.5000  -45.3030   25.8340 C.3   144  SER144      0.2055
    107  C          9.7060  -45.7280   24.3720 C.2   144  SER144      0.2643
    108  O          8.7190  -45.9600   23.6540 O.2   144  SER144     -0.2714
    109  CB         8.7740  -43.9570   25.8710 C.3   144  SER144      0.2130
    110  OG         9.6000  -42.9160   25.3730 O.3   144  SER144     -0.2179
    111  N         10.9640  -45.8230   23.9170 N.am  145  CYS145     -0.1967
    112  CA        11.2160  -46.1660   22.4950 C.3   145  CYS145      0.1712
    113  C         10.6400  -47.4990   22.1190 C.2   145  CYS145      0.2296
    114  O         10.6280  -48.4190   22.9220 O.2   145  CYS145     -0.2864
    115  CB        12.6820  -46.1430   22.1590 C.3   145  CYS145      0.0983
    116  SG        13.2610  -44.5060   22.0240 S.3   145  CYS145     -0.0798
    117  N          8.0100  -45.1550   18.0940 N.3   163  HIS163     -0.1226
    118  CA         8.7760  -44.0500   18.6450 C.3   163  HIS163      0.1752
    119  C         10.2910  -44.3200   18.6940 C.2   163  HIS163      0.2596
    120  O         10.7010  -45.3770   19.1360 O.2   163  HIS163     -0.2718
    121  CB         8.2590  -43.7130   20.0410 C.3   163  HIS163      0.0759
    122  CG         8.9450  -42.5410   20.6380 C.ar  163  HIS163      0.0818
    123  ND1        9.0090  -41.3290   19.9920 N.ar  163  HIS163     -0.2268
    124  CD2        9.6250  -42.3900   21.7950 C.ar  163  HIS163      0.1154
    125  CE1        9.7130  -40.4830   20.7180 C.ar  163  HIS163      0.1986
    126  NE2       10.0860  -41.0970   21.8240 N.ar  163  HIS163     -0.2212
    127  N         11.0990  -43.3300   18.3030 N.am  164  HIS164     -0.1961
    128  CA        12.5650  -43.4500   18.2650 C.3   164  HIS164      0.1787
    129  C         13.2940  -42.3750   19.0670 C.2   164  HIS164      0.2620
    130  O         14.2840  -42.6830   19.7250 O.2   164  HIS164     -0.2715
    131  CB        13.0850  -43.3850   16.8240 C.3   164  HIS164      0.0785
    132  CG        13.0140  -44.6850   16.0790 C.ar  164  HIS164      0.0821
    133  ND1       11.8230  -45.2560   15.6670 N.ar  164  HIS164     -0.2267
    134  CD2       13.9990  -45.4990   15.6210 C.ar  164  HIS164      0.1154
    135  CE1       12.0810  -46.3840   15.0220 C.ar  164  HIS164      0.1986
    136  NE2       13.3910  -46.5540   14.9860 N.ar  164  HIS164     -0.2212
    137  N         12.8380  -41.1180   19.0090 N.am  165  MET165     -0.1963
    138  CA        13.5810  -40.0320   19.6580 C.3   165  MET165      0.1736
    139  C         12.7880  -38.8240   20.0520 C.2   165  MET165      0.2616
    140  O         11.7050  -38.5820   19.5250 O.2   165  MET165     -0.2715
    141  CB        14.6970  -39.5390   18.7590 C.3   165  MET165      0.0427
    142  CG        14.4270  -39.7340   17.3020 C.3   165  MET165      0.0599
    143  SD        15.8530  -39.2480   16.3620 S.3   165  MET165     -0.1393
    144  CE        15.3620  -37.5780   15.9160 C.3   165  MET165      0.0692
    145  N         13.3590  -38.0540   20.9740 N.am  166  GLU166     -0.1963
    146  CA        12.8180  -36.7550   21.3220 C.3   166  GLU166      0.1733
    147  C         13.7410  -35.6900   20.7670 C.2   166  GLU166      0.2616
    148  O         14.9550  -35.8250   20.8600 O.2   166  GLU166     -0.2715
    149  CB        12.6910  -36.6280   22.8360 C.3   166  GLU166      0.0429
    150  CG        12.1110  -35.3130   23.3090 C.3   166  GLU166      0.1163
    151  CD        11.7130  -35.3670   24.7690 C.2   166  GLU166      0.3649
    152  OE1       12.3770  -34.6830   25.5500 O.co2 166  GLU166     -0.2457
    153  OE2       10.7560  -36.0900   25.1380 O.co2 166  GLU166     -0.2457
    154  N         13.1680  -34.6510   20.1690 N.am  167  LEU167     -0.1964
    155  CA        13.9640  -33.5960   19.5830 C.3   167  LEU167      0.1713
    156  C         14.1420  -32.5350   20.6390 C.2   167  LEU167      0.2458
    157  O         13.4580  -32.5910   21.6640 O.2   167  LEU167     -0.2730
    158  CB        13.2990  -33.0330   18.3240 C.3   167  LEU167      0.0310
    159  CG        13.2080  -33.9570   17.1030 C.3   167  LEU167      0.0022
    160  CD1       12.3490  -33.2930   16.0360 C.3   167  LEU167      0.0001
    161  CD2       14.5880  -34.3120   16.5450 C.3   167  LEU167      0.0001
    162  N         15.0640  -31.5730   20.4140 N.am  168  PRO168     -0.2727
    163  CA        15.3870  -30.5730   21.4340 C.3   168  PRO168      0.1402
    164  C         14.1850  -29.7930   21.9610 C.2   168  PRO168      0.2269
    165  O         14.1250  -29.5050   23.1560 O.2   168  PRO168     -0.2865
    166  CB        16.3330  -29.6190   20.6950 C.3   168  PRO168      0.0296
    167  CG        16.9640  -30.4580   19.6620 C.3   168  PRO168      0.0237
    168  CD        15.8690  -31.3690   19.1950 C.3   168  PRO168      0.0939
    169  N          8.4650  -35.2550   19.3500 N.3   172  HIS172     -0.1241
    170  CA         8.8850  -36.6400   19.1530 C.3   172  HIS172      0.1621
    171  C          8.9160  -37.0460   17.6900 C.2   172  HIS172      0.2264
    172  O          8.1600  -36.5180   16.8810 O.2   172  HIS172     -0.2867
    173  CB         7.9980  -37.5170   19.9850 C.3   172  HIS172      0.0745
    174  CG         7.9610  -37.0770   21.4170 C.ar  172  HIS172      0.0817
    175  ND1        6.9190  -36.3340   21.9450 N.ar  172  HIS172     -0.2268
    176  CD2        8.8900  -37.1770   22.4000 C.ar  172  HIS172      0.1154
    177  CE1        7.1870  -36.0470   23.2100 C.ar  172  HIS172      0.1986
    178  NE2        8.3780  -36.5390   23.5080 N.ar  172  HIS172     -0.2212
    179  N         18.2110  -41.6800   13.0040 N.3   187  ASP187     -0.1225
    180  CA        18.4400  -42.2730   14.3320 C.3   187  ASP187      0.1805
    181  C         19.9080  -42.2250   14.7460 C.2   187  ASP187      0.2598
    182  O         20.5570  -43.2530   14.9730 O.2   187  ASP187     -0.2718
    183  CB        17.8640  -43.6880   14.4420 C.3   187  ASP187      0.1424
    184  CG        18.3330  -44.6270   13.3310 C.2   187  ASP187      0.3668
    185  OD1       18.9360  -44.1830   12.3320 O.co2 187  ASP187     -0.2456
    186  OD2       18.0280  -45.8280   13.4370 O.co2 187  ASP187     -0.2456
    187  N         20.4240  -41.0110   14.8110 N.am  188  ARG188     -0.1966
    188  CA        21.7250  -40.7540   15.3860 C.3   188  ARG188      0.1729
    189  C         21.6180  -39.4750   16.2130 C.2   188  ARG188      0.2616
    190  O         20.8820  -38.5570   15.8430 O.2   188  ARG188     -0.2715
    191  CB        22.8150  -40.6640   14.3010 C.3   188  ARG188      0.0348
    192  CG        22.6660  -39.5300   13.2710 C.3   188  ARG188      0.0492
    193  CD        23.5930  -39.7370   12.0420 C.3   188  ARG188      0.2205
    194  NE        23.5710  -41.1440   11.6470 N.pl3 188  ARG188     -0.0865
    195  CZ        24.6350  -41.9450   11.6180 C.cat 188  ARG188      0.5346
    196  NH1       24.4850  -43.2220   11.2720 N.pl3 188  ARG188      0.1354
    197  NH2       25.8490  -41.4730   11.9060 N.pl3 188  ARG188      0.1354
    198  N         22.3210  -39.4260   17.3440 N.am  189  GLN189     -0.1963
    199  CA        22.2360  -38.2630   18.2340 C.3   189  GLN189      0.1733
    200  C         23.0110  -37.0590   17.6880 C.2   189  GLN189      0.2617
    201  O         24.0830  -36.7370   18.1920 O.2   189  GLN189     -0.2715
    202  CB        22.7080  -38.6070   19.6590 C.3   189  GLN189      0.0408
    203  CG        21.7800  -39.5540   20.4270 C.3   189  GLN189      0.0908
    204  CD        22.0650  -39.6310   21.9410 C.2   189  GLN189      0.2608
    205  OE1       21.2550  -40.1660   22.7020 O.2   189  GLN189     -0.2717
    206  NE2       23.2080  -39.1020   22.3730 N.am  189  GLN189     -0.0878
    207  N         22.4580  -36.3860   16.6780 N.am  190  THR190     -0.1937
    208  CA        23.1010  -35.2040   16.1000 C.3   190  THR190      0.2028
    209  C         22.3500  -33.8830   16.3810 C.2   190  THR190      0.2642
    210  O         21.5570  -33.8030   17.3140 O.2   190  THR190     -0.2714
    211  CB        23.3660  -35.3980   14.5990 C.3   190  THR190      0.1808
    212  OG1       22.1760  -35.8770   13.9540 O.3   190  THR190     -0.2208
    213  CG2       24.5160  -36.4170   14.3890 C.3   190  THR190      0.0379
    214  N         22.6100  -32.8520   15.5820 N.am  191  ALA191     -0.1963
    215  CA        22.0230  -31.5210   15.8220 C.3   191  ALA191      0.1728
    216  C         20.6160  -31.2950   15.2220 C.2   191  ALA191      0.2616
    217  O         20.1400  -30.1460   15.1560 O.2   191  ALA191     -0.2715
    218  CB        22.9890  -30.4110   15.3430 C.3   191  ALA191      0.0334
    219  N         19.9500  -32.3650   14.7940 N.am  192  GLN192     -0.1977
    220  CA        18.6560  -32.2300   14.1100 C.3   192  GLN192      0.1601
    221  C         17.6090  -31.4930   14.9640 C.2   192  GLN192      0.2287
    222  O         17.5460  -31.6810   16.1820 O.2   192  GLN192     -0.2864
    223  CB        18.1540  -33.5980   13.6600 C.3   192  GLN192      0.0394
    224  CG        18.3010  -34.6690   14.6950 C.3   192  GLN192      0.0908
    225  CD        18.0380  -36.0650   14.1590 C.2   192  GLN192      0.2608
    226  OE1       18.3400  -37.0750   14.8300 O.2   192  GLN192     -0.2717
    227  NE2       17.4880  -36.1430   12.9520 N.am  192  GLN192     -0.0878
@<TRIPOS>BOND
     1   196   195    1
     2    56    57    2
     3    56    55    1
     4    54    55    1
     5   195   194    2
     6   195   197    1
     7   194   193    1
     8    58    55    1
     9    58    59    1
    10   193   192    1
    11    50    49    2
    12   185   184   ar
    13    60    59   ar
    14    60    62   ar
    15    59    61   ar
    16   227   225   am
    17   179   180    1
    18    49    48    1
    19   192   191    1
    20   184   186   ar
    21   184   183    1
    22    62    64   ar
    23   223   220    1
    24   223   224    1
    25   212   211    1
    26    61    63   ar
    27   220   219    1
    28   220   221    1
    29   225   224    1
    30   225   226    2
    31   191   188    1
    32   180   183    1
    33   180   181    1
    34   213   211    1
    35    48    47    1
    36    48    51    1
    37    47    53    1
    38   211   208    1
    39    64    63   ar
    40    64    65    1
    41   181   187   am
    42   181   182    2
    43   219   216   am
    44   187   188    1
    45    53    52    1
    46   221   222    2
    47   136   135   ar
    48   136   134   ar
    49   135   133   ar
    50    52    51    1
    51   217   216    2
    52   216   215    1
    53   218   215    1
    54   188   189    1
    55   214   215    1
    56   214   209   am
    57   134   132   ar
    58   133   132   ar
    59   190   189    2
    60   144   143    1
    61   160   159    1
    62   132   131    1
    63   208   209    1
    64   208   207    1
    65   189   198   am
    66   143   142    1
    67   209   210    2
    68   161   159    1
    69   207   200   am
    70   131   128    1
    71   172   171    2
    72    23    24    1
    73   159   158    1
    74   142   141    1
    75   198   199    1
    76   200   201    2
    77   200   199    1
    78   171   170    1
    79    42    41    2
    80    38    37    1
    81    24    27    1
    82    24    25    1
    83   117   118    1
    84    27    28    1
    85   199   202    1
    86   128   127    1
    87   128   129    1
    88   127   119   am
    89   158   155    1
    90    41    40    1
    91    29    28   ar
    92    29    31   ar
    93   118   119    1
    94   118   121    1
    95   119   120    2
    96   141   138    1
    97   137   129   am
    98   137   138    1
    99    28    30   ar
   100   129   130    2
   101   170   169    1
   102   170   173    1
   103   168   167    1
   104   168   162    1
   105    25    26    2
   106    31    32   ar
   107    40    39    1
   108    40    43    1
   109   140   139    2
   110   155   154    1
   111   155   156    1
   112    37    34    1
   113   138   139    1
   114   202   203    1
   115   167   166    1
   116    33    34    1
   117    34    35    1
   118   173   174    1
   119   123   122   ar
   120   123   125   ar
   121   121   122    1
   122   139   145   am
   123   154   147   am
   124    30    32   ar
   125   162   156   am
   126   162   163    1
   127   203   204    1
   128   122   124   ar
   129   156   157    2
   130   166   163    1
   131   125   126   ar
   132   147   148    2
   133   147   146    1
   134    43    44    1
   135   145   146    1
   136   146   149    1
   137   174   175   ar
   138   174   176   ar
   139   163   164    1
   140    35    36    2
   141    84    82   ar
   142    84    83   ar
   143    82    80   ar
   144    22    20    1
   145    44    45    1
   146   124   126   ar
   147    21    20    1
   148   204   206   am
   149   204   205    2
   150   175   177   ar
   151   164   165    2
   152   116   115    1
   153   113   112    1
   154   113   114    2
   155   115   112    1
   156   176   178   ar
   157   112   111    1
   158    20    19    1
   159    83    81   ar
   160    80    79   ar
   161   149   150    1
   162   177   178   ar
   163   150   151    1
   164    45    46    1
   165   108   107    2
   166    81    79   ar
   167    79    78    1
   168    19    16    1
   169   111   107   am
   170   107   106    1
   171     7     5    1
   172    17    18    2
   173    17    16    1
   174   151   153   ar
   175   151   152   ar
   176    78    75    1
   177    16    15    1
   178     5     6    1
   179     5     2    1
   180   110   109    1
   181    15    10   am
   182     4     3    2
   183   106   109    1
   184   106   105    1
   185    74    75    1
   186    75    76    1
   187     3     2    1
   188     3     8   am
   189    10    11    2
   190    10     9    1
   191     2     1    1
   192   105   103   am
   193     9     8    1
   194     9    12    1
   195    77    76    2
   196    76    85   am
   197   103   104    2
   198   103   102    1
   199    88    87    2
   200    14    12    1
   201    85    86    1
   202   102   101    1
   203   101    95   am
   204    12    13    1
   205    87    86    1
   206    87    93   am
   207    68    67    1
   208    68    69    2
   209    86    89    1
   210   100    98   am
   211    94    95    1
   212    94    93    1
   213    94    97    1
   214    66    67    1
   215    95    96    2
   216    67    70    1
   217    98    99    2
   218    98    97    1
   219    73    71   am
   220    89    90    1
   221    70    71    1
   222    92    90    1
   223    71    72    2
   224    91    90    1
