@<TRIPOS>MOLECULE
tmp/2qjeA03.pdb
 103 101 0 0 0
SMALL
GASTEIGER

@<TRIPOS>ATOM
      1  N         18.8890   19.9620    1.7390 N.3    79  HIS79      -0.1241
      2  CA        19.8950   20.3240    2.7410 C.3    79  HIS79       0.1621
      3  C         21.2430   19.7890    2.2340 C.2    79  HIS79       0.2264
      4  O         22.1410   19.4940    3.0180 O.2    79  HIS79      -0.2867
      5  CB        19.5790   19.6770    4.1030 C.3    79  HIS79       0.0745
      6  CG        18.1580   19.8410    4.5510 C.ar   79  HIS79       0.0817
      7  ND1       17.5630   21.0730    4.7230 N.ar   79  HIS79      -0.2268
      8  CD2       17.2210   18.9220    4.8860 C.ar   79  HIS79       0.1154
      9  CE1       16.3220   20.9060    5.1450 C.ar   79  HIS79       0.1986
     10  NE2       16.0900   19.6100    5.2520 N.ar   79  HIS79      -0.2212
     11  N         20.1660   19.0750    9.4820 N.3    88  PRO88      -0.2102
     12  CA        19.1160   18.5760   10.3830 C.3    88  PRO88       0.1504
     13  C         18.7010   17.1480    9.9980 C.2    88  PRO88       0.2576
     14  O         18.6350   16.8210    8.8100 O.2    88  PRO88      -0.2718
     15  CB        17.9570   19.5630   10.1770 C.3    88  PRO88       0.0282
     16  CG        18.5280   20.6890    9.2840 C.3    88  PRO88       0.0208
     17  CD        19.6080   20.0130    8.4930 C.3    88  PRO88       0.0893
     18  N         18.4220   16.3070   10.9940 N.am   89  THR89      -0.1939
     19  CA        18.0030   14.9170   10.7560 C.3    89  THR89       0.2028
     20  C         16.5590   14.8170   10.2440 C.2    89  THR89       0.2642
     21  O         15.6430   15.3820   10.8400 O.2    89  THR89      -0.2714
     22  CB        18.0670   14.0730   12.0430 C.3    89  THR89       0.1808
     23  OG1       17.0650   14.5400   12.9560 O.3    89  THR89      -0.2208
     24  CG2       19.4450   14.1680   12.7020 C.3    89  THR89       0.0379
     25  N         16.3520   14.0410    9.1840 N.am   90  GLU90      -0.1976
     26  CA        15.0330   13.8960    8.5670 C.3    90  GLU90       0.1602
     27  C         14.0510   12.8510    9.1220 C.2    90  GLU90       0.2287
     28  O         12.8550   12.9320    8.8420 O.2    90  GLU90      -0.2864
     29  CB        15.2190   13.6830    7.0540 C.3    90  GLU90       0.0415
     30  CG        15.6460   14.9620    6.2910 C.3    90  GLU90       0.1163
     31  CD        16.3250   14.6840    4.9460 C.2    90  GLU90       0.3649
     32  OE1       15.9940   13.6680    4.2890 O.co2  90  GLU90      -0.2457
     33  OE2       17.1830   15.5000    4.5400 O.co2  90  GLU90      -0.2457
     34  N          6.5160    8.6560   10.9280 N.3   250  VAL250     -0.1245
     35  CA         7.9040    9.0110   10.6610 C.3   250  VAL250      0.1561
     36  C          8.5230    8.9290   12.0610 C.2   250  VAL250      0.2260
     37  O          7.9470    9.4240   13.0350 O.2   250  VAL250     -0.2867
     38  CB         8.0530   10.4170    9.9950 C.3   250  VAL250      0.0252
     39  CG1        6.7850   11.1990   10.1470 C.3   250  VAL250      0.0019
     40  CG2        9.2400   11.1650   10.5710 C.3   250  VAL250      0.0019
     41  N         11.7810    9.3620   14.8860 N.3   252  PRO252     -0.2116
     42  CA        12.9920   10.1650   15.0690 C.3   252  PRO252      0.1372
     43  C         14.1950    9.2100   14.9320 C.2   252  PRO252      0.2244
     44  O         14.1330    8.0360   15.3350 O.2   252  PRO252     -0.2868
     45  CB        12.8320   10.7190   16.4820 C.3   252  PRO252      0.0268
     46  CG        12.0430    9.6490   17.1790 C.3   252  PRO252      0.0207
     47  CD        11.0170    9.2480   16.1420 C.3   252  PRO252      0.0892
     48  N         22.8860   18.2490   17.2840 N.3   310  LEU310     -0.1231
     49  CA        21.4690   18.4930   17.4350 C.3   310  LEU310      0.1693
     50  C         21.1390   19.9710   17.3860 C.2   310  LEU310      0.2593
     51  O         20.3590   20.4020   16.5400 O.2   310  LEU310     -0.2718
     52  CB        20.9530   17.8470   18.7250 C.3   310  LEU310      0.0284
     53  CG        21.1000   16.3170   18.7190 C.3   310  LEU310      0.0019
     54  CD1       20.5310   15.7360   19.9930 C.3   310  LEU310      0.0001
     55  CD2       20.3980   15.7310   17.5050 C.3   310  LEU310      0.0001
     56  N         21.7210   20.7650   18.2710 N.am  311  GLY311     -0.1942
     57  CA        21.4400   22.1930   18.2090 C.3   311  GLY311      0.2014
     58  C         19.9840   22.5060   18.4860 C.2   311  GLY311      0.2639
     59  O         19.0820   22.1060   17.7440 O.2   311  GLY311     -0.2714
     60  N         19.7840   23.3080   19.5250 N.am  312  GLY312     -0.1954
     61  CA        18.4610   23.6090   20.0340 C.3   312  GLY312      0.1869
     62  C         18.5980   22.8070   21.3280 C.2   312  GLY312      0.2309
     63  O         17.6450   22.6340   22.1030 O.2   312  GLY312     -0.2863
     64  N         18.3300   20.0470   22.6110 N.3   314  PRO314     -0.2116
     65  CA        17.0890   19.3950   23.0010 C.3   314  PRO314      0.1372
     66  C         17.1310   18.3500   24.0700 C.2   314  PRO314      0.2244
     67  O         18.0460   17.5550   24.1140 O.2   314  PRO314     -0.2868
     68  CB        16.5990   18.8310   21.6770 C.3   314  PRO314      0.0268
     69  CG        17.8540   18.3510   21.0590 C.3   314  PRO314      0.0207
     70  CD        18.8050   19.5190   21.3170 C.3   314  PRO314      0.0892
     71  N         11.8990   16.7590   23.6370 N.3   318  GLU318     -0.1231
     72  CA        11.9210   17.6060   22.4580 C.3   318  GLU318      0.1699
     73  C         12.5540   16.8400   21.3330 C.2   318  GLU318      0.2592
     74  O         12.2220   17.0500   20.1780 O.2   318  GLU318     -0.2718
     75  CB        12.7390   18.8620   22.6890 C.3   318  GLU318      0.0402
     76  CG        12.2080   19.7120   23.7960 C.3   318  GLU318      0.1161
     77  CD        13.1370   20.8400   24.1420 C.2   318  GLU318      0.3649
     78  OE1       14.3300   20.5710   24.4440 O.co2 318  GLU318     -0.2457
     79  OE2       12.6620   21.9960   24.1170 O.co2 318  GLU318     -0.2457
     80  N         13.4980   15.9600   21.6340 N.am  319  TYR319     -0.1962
     81  CA        14.0810   15.2410   20.5300 C.3   319  TYR319      0.1771
     82  C         13.0840   14.2740   19.9370 C.2   319  TYR319      0.2619
     83  O         12.9350   14.2040   18.7310 O.2   319  TYR319     -0.2715
     84  CB        15.3480   14.4580   20.9290 C.3   319  TYR319      0.0574
     85  CG        15.8720   13.7000   19.7280 C.ar  319  TYR319     -0.0198
     86  CD1       16.3710   14.3890   18.6280 C.ar  319  TYR319     -0.0009
     87  CD2       15.6100   12.3390   19.5730 C.ar  319  TYR319     -0.0009
     88  CE1       16.5760   13.7640   17.4280 C.ar  319  TYR319      0.0417
     89  CE2       15.7920   11.7120   18.3790 C.ar  319  TYR319      0.0417
     90  CZ        16.2800   12.4230   17.3100 C.ar  319  TYR319      0.1957
     91  OH        16.4770   11.8210   16.0990 O.3   319  TYR319     -0.2866
     92  N         12.4580   13.4860   20.7990 N.am  320  LEU320     -0.1963
     93  CA        11.5020   12.4940   20.3480 C.3   320  LEU320      0.1728
     94  C         10.2850   13.1900   19.7570 C.2   320  LEU320      0.2616
     95  O          9.6530   12.6790   18.8320 O.2   320  LEU320     -0.2715
     96  CB        11.0670   11.5830   21.5050 C.3   320  LEU320      0.0311
     97  CG        12.1560   10.7410   22.1880 C.3   320  LEU320      0.0022
     98  CD1       11.5340    9.9610   23.3390 C.3   320  LEU320      0.0001
     99  CD2       12.8190    9.7900   21.1820 C.3   320  LEU320      0.0001
    100  N          9.9750   14.3680   20.2920 N.am  321  GLY321     -0.1955
    101  CA         8.8230   15.1200   19.8340 C.3   321  GLY321      0.1869
    102  C          7.5530   14.7750   20.5720 C.2   321  GLY321      0.2309
    103  O          7.3460   13.6330   20.9940 O.2   321  GLY321     -0.2863
@<TRIPOS>BOND
     1     1     2    1
     2     3     2    1
     3     3     4    2
     4     2     5    1
     5     5     6    1
     6    32    31   ar
     7    33    31   ar
     8     6     7   ar
     9     6     8   ar
    10     7     9   ar
    11     8    10   ar
    12    31    30    1
    13     9    10   ar
    14    30    29    1
    15    29    26    1
    16    17    16    1
    17    17    11    1
    18    26    27    1
    19    26    25    1
    20    14    13    2
    21    28    27    2
    22    25    20   am
    23    16    15    1
    24    11    12    1
    25    38    39    1
    26    38    40    1
    27    38    35    1
    28    13    12    1
    29    13    18   am
    30    15    12    1
    31    20    19    1
    32    20    21    2
    33    35    34    1
    34    35    36    1
    35    19    18    1
    36    19    22    1
    37    22    24    1
    38    22    23    1
    39    36    37    2
    40    41    42    1
    41    41    47    1
    42    43    42    1
    43    43    44    2
    44    42    45    1
    45    91    90    1
    46    47    46    1
    47    45    46    1
    48    51    50    2
    49    48    49    1
    50    90    88   ar
    51    90    89   ar
    52    50    49    1
    53    50    56   am
    54    88    86   ar
    55    49    52    1
    56    55    53    1
    57    59    58    2
    58    57    56    1
    59    57    58    1
    60    89    87   ar
    61    58    60   am
    62    86    85   ar
    63    53    52    1
    64    53    54    1
    65    83    82    2
    66    95    94    2
    67    60    61    1
    68    87    85   ar
    69    85    84    1
    70    94   100   am
    71    94    93    1
    72   101   100    1
    73   101   102    1
    74    82    81    1
    75    82    92   am
    76    61    62    1
    77    74    73    2
    78    93    92    1
    79    93    96    1
    80    81    84    1
    81    81    80    1
    82   102   103    2
    83    69    70    1
    84    69    68    1
    85    99    97    1
    86    70    64    1
    87    62    63    2
    88    73    80   am
    89    73    72    1
    90    96    97    1
    91    68    65    1
    92    97    98    1
    93    72    75    1
    94    72    71    1
    95    64    65    1
    96    75    76    1
    97    65    66    1
    98    76    77    1
    99    66    67    2
   100    79    77   ar
   101    77    78   ar
