@<TRIPOS>MOLECULE
tmp/2qjgQ00.pdb
 165 157 0 0 0
SMALL
GASTEIGER

@<TRIPOS>ATOM
      1  N         77.1460   72.9150   18.6490 N.3    31  PRO31      -0.2116
      2  CA        76.7320   73.5370   19.9080 C.3    31  PRO31       0.1372
      3  C         77.6130   74.7380   20.2020 C.2    31  PRO31       0.2244
      4  O         78.8300   74.6580   20.0520 O.2    31  PRO31      -0.2868
      5  CB        76.9420   72.4220   20.9300 C.3    31  PRO31       0.0268
      6  CG        76.8460   71.1640   20.1030 C.3    31  PRO31       0.0207
      7  CD        77.5910   71.5310   18.8650 C.3    31  PRO31       0.0892
      8  N         76.8910   76.8720   23.1630 N.3    33  ASP33      -0.1225
      9  CA        76.3450   77.3360   24.4340 C.3    33  ASP33       0.1805
     10  C         77.3960   77.4180   25.5340 C.2    33  ASP33       0.2597
     11  O         77.0790   77.7660   26.6710 O.2    33  ASP33      -0.2718
     12  CB        75.2390   76.3870   24.8840 C.3    33  ASP33       0.1424
     13  CG        75.7470   74.9630   25.1020 C.2    33  ASP33       0.3668
     14  OD1       76.3390   74.3860   24.1670 O.co2  33  ASP33      -0.2456
     15  OD2       75.5560   74.4150   26.2060 O.co2  33  ASP33      -0.2456
     16  N         78.6370   77.0960   25.1930 N.am   34  HIS34      -0.1975
     17  CA        79.7290   77.1130   26.1520 C.3    34  HIS34       0.1656
     18  C         79.8610   78.4360   26.9080 C.2    34  HIS34       0.2291
     19  O         80.3510   78.4660   28.0360 O.2    34  HIS34      -0.2864
     20  CB        81.0440   76.7910   25.4470 C.3    34  HIS34       0.0771
     21  CG        80.9920   75.5420   24.6280 C.ar   34  HIS34       0.0820
     22  ND1       80.1110   75.3770   23.5800 N.ar   34  HIS34      -0.2267
     23  CD2       81.7150   74.3980   24.6950 C.ar   34  HIS34       0.1154
     24  CE1       80.2950   74.1880   23.0360 C.ar   34  HIS34       0.1986
     25  NE2       81.2630   73.5720   23.6920 N.ar   34  HIS34      -0.2212
     26  N         78.5060   78.3760   30.5560 N.3    37  SER37      -0.1202
     27  CA        79.2850   77.6200   31.5270 C.3    37  SER37       0.2020
     28  C         80.7690   77.9270   31.6370 C.2    37  SER37       0.2618
     29  O         81.3440   77.7660   32.7120 O.2    37  SER37      -0.2717
     30  CB        79.0820   76.1220   31.2940 C.3    37  SER37       0.2103
     31  OG        79.0320   75.8160   29.9090 O.3    37  SER37      -0.2182
     32  N         81.3830   78.3970   30.5540 N.am   38  ASN38      -0.1974
     33  CA        82.8130   78.6840   30.5810 C.3    38  ASN38       0.1688
     34  C         83.2280   80.0950   30.2500 C.2    38  ASN38       0.2292
     35  O         84.4200   80.3980   30.2520 O.2    38  ASN38      -0.2864
     36  CB        83.5440   77.7410   29.6400 C.3    38  ASN38       0.1181
     37  CG        83.2410   76.3160   29.9290 C.2    38  ASN38       0.2629
     38  OD1       83.5360   75.8170   31.0140 O.2    38  ASN38      -0.2716
     39  ND2       82.6350   75.6400   28.9640 N.am   38  ASN38      -0.0877
     40  N         77.2190   77.0810   35.6890 N.3    90  THR90      -0.1203
     41  CA        78.5670   77.5600   35.3670 C.3    90  THR90       0.1994
     42  C         79.7020   76.9010   36.1470 C.2    90  THR90       0.2617
     43  O         79.5150   76.3500   37.2310 O.2    90  THR90      -0.2717
     44  CB        78.7260   79.0950   35.5570 C.3    90  THR90       0.1784
     45  OG1       79.0220   79.3860   36.9270 O.3    90  THR90      -0.2211
     46  CG2       77.4640   79.8210   35.1430 C.3    90  THR90       0.0376
     47  N         80.8940   76.9920   35.5680 N.am   91  ALA91      -0.1979
     48  CA        82.0870   76.4180   36.1590 C.3    91  ALA91       0.1597
     49  C         82.5090   77.1760   37.4010 C.2    91  ALA91       0.2287
     50  O         83.2650   76.6550   38.2190 O.2    91  ALA91      -0.2864
     51  CB        83.1940   76.4240   35.1600 C.3    91  ALA91       0.0319
     52  N         79.4270   73.3240   40.0830 N.3    96  PRO96      -0.2116
     53  CA        79.5630   73.4220   38.6300 C.3    96  PRO96       0.1372
     54  C         78.8010   72.3820   37.8040 C.2    96  PRO96       0.2244
     55  O         78.6330   72.5550   36.5990 O.2    96  PRO96      -0.2868
     56  CB        81.0760   73.3500   38.4240 C.3    96  PRO96       0.0268
     57  CG        81.5050   72.4650   39.5500 C.3    96  PRO96       0.0207
     58  CD        80.7260   73.0170   40.7080 C.3    96  PRO96       0.0892
     59  N         72.5250   72.0760   36.9780 N.3    99  LYS99      -0.1245
     60  CA        71.9050   72.6570   35.8040 C.3    99  LYS99       0.1561
     61  C         70.4690   72.9880   36.1560 C.2    99  LYS99       0.2260
     62  O         69.7550   72.1670   36.7310 O.2    99  LYS99      -0.2867
     63  CB        71.9230   71.6830   34.6250 C.3    99  LYS99       0.0271
     64  CG        73.2980   71.3660   34.0830 C.3    99  LYS99       0.0035
     65  CD        73.9740   72.5770   33.4580 C.3    99  LYS99       0.0206
     66  CE        75.3100   72.1620   32.8170 C.3    99  LYS99       0.1093
     67  NZ        76.0500   73.3070   32.1960 N.3    99  LYS99      -0.1314
     68  N         70.3250   69.7930   29.3020 N.3   119  HIS119     -0.1241
     69  CA        71.5510   69.1240   29.7460 C.3   119  HIS119      0.1621
     70  C         71.3390   68.5040   31.1190 C.2   119  HIS119      0.2264
     71  O         70.9560   69.1860   32.0680 O.2   119  HIS119     -0.2867
     72  CB        72.7130   70.1340   29.7720 C.3   119  HIS119      0.0745
     73  CG        74.0200   69.5570   30.2150 C.ar  119  HIS119      0.0817
     74  ND1       75.2310   70.0390   29.7660 N.ar  119  HIS119     -0.2268
     75  CD2       74.3120   68.5730   31.0990 C.ar  119  HIS119      0.1154
     76  CE1       76.2110   69.3760   30.3520 C.ar  119  HIS119      0.1986
     77  NE2       75.6800   68.4820   31.1650 N.ar  119  HIS119     -0.2212
     78  N         71.0200   66.1750   26.2630 N.3   151  MET151     -0.1245
     79  CA        72.4460   65.9220   26.4060 C.3   151  MET151      0.1570
     80  C         72.6180   65.1850   27.7160 C.2   151  MET151      0.2261
     81  O         72.5740   65.8020   28.7780 O.2   151  MET151     -0.2867
     82  CB        73.2000   67.2410   26.4690 C.3   151  MET151      0.0387
     83  CG        72.8640   68.2020   25.3460 C.3   151  MET151      0.0595
     84  SD        73.8250   69.7300   25.4710 S.3   151  MET151     -0.1393
     85  CE        73.2770   70.5610   23.9630 C.3   151  MET151      0.0692
     86  N         74.9420   63.0730   30.3020 N.3   153  TYR153     -0.1241
     87  CA        76.3190   62.7420   30.6760 C.3   153  TYR153      0.1605
     88  C         76.4360   62.2120   32.1030 C.2   153  TYR153      0.2264
     89  O         75.8000   62.7430   33.0120 O.2   153  TYR153     -0.2867
     90  CB        77.2310   63.9690   30.6060 C.3   153  TYR153      0.0534
     91  CG        77.2600   64.7100   29.2960 C.ar  153  TYR153     -0.0201
     92  CD1       76.5290   65.8860   29.1240 C.ar  153  TYR153     -0.0009
     93  CD2       78.0600   64.2680   28.2360 C.ar  153  TYR153     -0.0009
     94  CE1       76.5990   66.6040   27.9350 C.ar  153  TYR153      0.0417
     95  CE2       78.1300   64.9810   27.0420 C.ar  153  TYR153      0.0417
     96  CZ        77.3980   66.1470   26.9020 C.ar  153  TYR153      0.1957
     97  OH        77.4530   66.8650   25.7310 O.3   153  TYR153     -0.2866
     98  N         78.1520   62.3600   35.2550 N.3   155  ARG155     -0.1245
     99  CA        79.1090   63.2300   35.9410 C.3   155  ARG155      0.1563
    100  C         78.6640   63.3650   37.3800 C.2   155  ARG155      0.2260
    101  O         77.4630   63.3980   37.6450 O.2   155  ARG155     -0.2867
    102  CB        79.1500   64.6250   35.3070 C.3   155  ARG155      0.0307
    103  CG        79.6500   64.6510   33.8840 C.3   155  ARG155      0.0489
    104  CD        79.8190   66.0670   33.3740 C.3   155  ARG155      0.2205
    105  NE        80.3470   66.0470   32.0150 N.pl3 155  ARG155     -0.0865
    106  CZ        80.1990   67.0280   31.1290 C.cat 155  ARG155      0.5346
    107  NH1       79.5320   68.1360   31.4490 N.pl3 155  ARG155      0.1354
    108  NH2       80.7090   66.8930   29.9090 N.pl3 155  ARG155      0.1354
    109  N         72.2770   63.4180   23.0040 N.3   184  LYS184     -0.1245
    110  CA        73.6590   63.8920   22.8470 C.3   184  LYS184      0.1561
    111  C         74.5410   63.2640   23.9280 C.2   184  LYS184      0.2260
    112  O         74.1650   63.2070   25.0980 O.2   184  LYS184     -0.2867
    113  CB        73.6950   65.4160   22.9810 C.3   184  LYS184      0.0271
    114  CG        75.1160   65.9500   22.7940 C.3   184  LYS184      0.0035
    115  CD        75.1610   67.4680   22.9830 C.3   184  LYS184      0.0206
    116  CE        76.5940   67.9920   22.8740 C.3   184  LYS184      0.1093
    117  NZ        76.7450   69.1860   23.7170 N.3   184  LYS184     -0.1314
    118  N         79.2200   63.9620   21.1040 N.3   208  ALA208     -0.1231
    119  CA        79.7980   65.2440   21.4690 C.3   208  ALA208      0.1694
    120  C         81.2510   65.2120   21.0090 C.2   208  ALA208      0.2593
    121  O         81.8370   64.1370   20.8810 O.2   208  ALA208     -0.2718
    122  CB        79.7260   65.4380   22.9680 C.3   208  ALA208      0.0304
    123  N         81.8330   66.3810   20.7680 N.am  209  GLY209     -0.1942
    124  CA        83.2070   66.4170   20.3060 C.3   209  GLY209      0.2014
    125  C         84.2860   66.3860   21.3730 C.2   209  GLY209      0.2639
    126  O         85.3970   65.9230   21.1180 O.2   209  GLY209     -0.2714
    127  N         83.9560   66.8750   22.5670 N.am  210  GLY210     -0.1954
    128  CA        84.9160   66.9190   23.6540 C.3   210  GLY210      0.1869
    129  C         85.8820   68.0820   23.4900 C.2   210  GLY210      0.2309
    130  O         85.6780   68.9430   22.6350 O.2   210  GLY210     -0.2863
    131  N         77.3870   66.3260   17.2950 N.3   235  ALA235     -0.1231
    132  CA        77.0740   67.6240   17.8920 C.3   235  ALA235      0.1694
    133  C         78.3730   68.1020   18.5190 C.2   235  ALA235      0.2592
    134  O         78.5660   67.9890   19.7290 O.2   235  ALA235     -0.2718
    135  CB        75.9880   67.4770   18.9560 C.3   235  ALA235      0.0304
    136  N         79.2830   68.6140   17.6960 N.am  236  VAL236     -0.1966
    137  CA        80.5620   69.0550   18.2260 C.3   236  VAL236      0.1727
    138  C         80.7290   70.5610   18.1890 C.2   236  VAL236      0.2617
    139  O         80.3440   71.2270   17.2300 O.2   236  VAL236     -0.2715
    140  CB        81.7580   68.3800   17.4820 C.3   236  VAL236      0.0290
    141  CG1       81.3200   67.0560   16.8990 C.3   236  VAL236      0.0023
    142  CG2       82.3180   69.2950   16.4140 C.3   236  VAL236      0.0023
    143  N         81.3070   71.0840   19.2610 N.am  237  GLY237     -0.1940
    144  CA        81.5290   72.5070   19.3580 C.3   237  GLY237      0.2014
    145  C         82.9940   72.8900   19.2880 C.2   237  GLY237      0.2639
    146  O         83.4950   73.2580   18.2260 O.2   237  GLY237     -0.2714
    147  N         83.6820   72.7910   20.4180 N.am  238  ARG238     -0.1963
    148  CA        85.0820   73.1740   20.4950 C.3   238  ARG238      0.1729
    149  C         85.9780   72.6850   19.3510 C.2   238  ARG238      0.2616
    150  O         86.7470   73.4630   18.7900 O.2   238  ARG238     -0.2715
    151  CB        85.6550   72.7560   21.8540 C.3   238  ARG238      0.0348
    152  CG        85.1580   73.6320   23.0120 C.3   238  ARG238      0.0492
    153  CD        85.3920   72.9810   24.3610 C.3   238  ARG238      0.2205
    154  NE        84.6130   71.7530   24.5050 N.pl3 238  ARG238     -0.0865
    155  CZ        84.7690   70.8780   25.4940 C.cat 238  ARG238      0.5346
    156  NH1       85.6810   71.0900   26.4430 N.pl3 238  ARG238      0.1354
    157  NH2       84.0190   69.7850   25.5240 N.pl3 238  ARG238      0.1354
    158  N         85.8800   71.4100   18.9920 N.am  239  ASN239     -0.1972
    159  CA        86.7080   70.8990   17.9110 C.3   239  ASN239      0.1688
    160  C         86.4420   71.5450   16.5620 C.2   239  ASN239      0.2292
    161  O         87.2220   71.3710   15.6270 O.2   239  ASN239     -0.2864
    162  CB        86.5770   69.3840   17.8010 C.3   239  ASN239      0.1181
    163  CG        87.5910   68.6610   18.6660 C.2   239  ASN239      0.2629
    164  OD1       88.7970   68.8260   18.4880 O.2   239  ASN239     -0.2716
    165  ND2       87.1080   67.8660   19.6110 N.am  239  ASN239     -0.0877
@<TRIPOS>BOND
     1   161   160    2
     2   142   140    1
     3   160   159    1
     4   141   140    1
     5   139   138    2
     6   131   132    1
     7   140   137    1
     8   136   137    1
     9   136   133   am
    10   162   159    1
    11   162   163    1
    12   132   133    1
    13   132   135    1
    14   159   158    1
    15   138   137    1
    16   138   143   am
    17   146   145    2
    18   164   163    2
    19   133   134    2
    20     1     7    1
    21     1     2    1
    22   163   165   am
    23   150   149    2
    24     7     6    1
    25   158   149   am
    26   143   144    1
    27   145   144    1
    28   145   147   am
    29   149   148    1
    30     2     3    1
    31     2     5    1
    32     4     3    2
    33     6     5    1
    34   124   123    1
    35   124   125    1
    36   147   148    1
    37   148   151    1
    38   123   120   am
    39   121   120    2
    40   120   119    1
    41   118   119    1
    42   126   125    2
    43   125   127   am
    44   119   122    1
    45   151   152    1
    46   127   128    1
    47   130   129    2
    48   114   113    1
    49   114   115    1
    50   110   113    1
    51   110   109    1
    52   110   111    1
    53   116   115    1
    54   116   117    1
    55   152   153    1
    56    24    22   ar
    57    24    25   ar
    58     8     9    1
    59   129   128    1
    60    22    21   ar
    61    25    23   ar
    62   111   112    2
    63    85    84    1
    64    14    13   ar
    65   153   154    1
    66     9    12    1
    67     9    10    1
    68   154   155    2
    69    21    23   ar
    70    21    20    1
    71    12    13    1
    72    13    15   ar
    73    16    10   am
    74    16    17    1
    75    83    84    1
    76    83    82    1
    77    20    17    1
    78   155   157    1
    79   155   156    1
    80    10    11    2
    81    97    96    1
    82    17    18    1
    83    78    79    1
    84    79    82    1
    85    79    80    1
    86    96    95   ar
    87    96    94   ar
    88    18    19    2
    89    95    93   ar
    90    80    81    2
    91    94    92   ar
    92    93    91   ar
    93    39    37   am
    94    92    91   ar
    95    91    90    1
    96    68    69    1
    97    36    37    1
    98    36    33    1
    99    69    72    1
   100    69    70    1
   101    74    73   ar
   102    74    76   ar
   103    72    73    1
   104    31    30    1
   105   108   106    1
   106    37    38    2
   107    73    75   ar
   108    34    35    2
   109    34    33    1
   110    86    87    1
   111    76    77   ar
   112    32    33    1
   113    32    28   am
   114    26    27    1
   115    90    87    1
   116    87    88    1
   117    75    77   ar
   118    70    71    2
   119   106   107    1
   120   106   105    2
   121    30    27    1
   122    27    28    1
   123    28    29    2
   124   105   104    1
   125    88    89    2
   126    67    66    1
   127    66    65    1
   128   104   103    1
   129    65    64    1
   130   103   102    1
   131    64    63    1
   132    63    60    1
   133    46    44    1
   134    51    48    1
   135    98    99    1
   136   102    99    1
   137    41    44    1
   138    41    40    1
   139    41    42    1
   140    44    45    1
   141    47    42   am
   142    47    48    1
   143    60    61    1
   144    60    59    1
   145    99   100    1
   146    42    43    2
   147    61    62    2
   148    48    49    1
   149    55    54    2
   150   100   101    2
   151    49    50    2
   152    54    53    1
   153    56    53    1
   154    56    57    1
   155    53    52    1
   156    57    58    1
   157    52    58    1
