@<TRIPOS>MOLECULE
tmp/2qjhE00.pdb
 112 108 0 0 0
SMALL
GASTEIGER

@<TRIPOS>ATOM
      1  N         66.1790   22.6730  155.9030 N.3    30  PRO30      -0.2116
      2  CA        67.1390   22.1120  154.9420 C.3    30  PRO30       0.1372
      3  C         67.7510   20.8000  155.4570 C.2    30  PRO30       0.2244
      4  O         68.1630   20.7000  156.6110 O.2    30  PRO30      -0.2868
      5  CB        68.1750   23.2260  154.7970 C.3    30  PRO30       0.0268
      6  CG        68.1450   23.8830  156.1430 C.3    30  PRO30       0.0207
      7  CD        66.6600   23.9520  156.4480 C.3    30  PRO30       0.0892
      8  N         70.1320   18.8830  153.3910 N.3    32  ASP32      -0.1225
      9  CA        71.1130   18.5500  152.3620 C.3    32  ASP32       0.1805
     10  C         72.4800   18.2210  152.9770 C.2    32  ASP32       0.2597
     11  O         73.4630   18.0290  152.2640 O.2    32  ASP32      -0.2718
     12  CB        71.2530   19.7300  151.3960 C.3    32  ASP32       0.1424
     13  CG        71.7830   20.9950  152.0850 C.2    32  ASP32       0.3668
     14  OD1       71.1330   21.4840  153.0390 O.co2  32  ASP32      -0.2456
     15  OD2       72.8520   21.4930  151.6700 O.co2  32  ASP32      -0.2456
     16  N         72.5440   18.1700  154.2990 N.am   33  HIS33      -0.1975
     17  CA        73.7830   17.8730  155.0080 C.3    33  HIS33       0.1656
     18  C         74.4420   16.5430  154.6140 C.2    33  HIS33       0.2291
     19  O         75.6560   16.3940  154.7480 O.2    33  HIS33      -0.2864
     20  CB        73.5260   17.8790  156.5110 C.3    33  HIS33       0.0771
     21  CG        72.8800   19.1320  157.0010 C.ar   33  HIS33       0.0820
     22  ND1       71.6930   19.6070  156.4870 N.ar   33  HIS33      -0.2267
     23  CD2       73.2540   20.0100  157.9590 C.ar   33  HIS33       0.1154
     24  CE1       71.3620   20.7230  157.1070 C.ar   33  HIS33       0.1986
     25  NE2       72.2930   20.9910  158.0060 N.ar   33  HIS33      -0.2212
     26  N         74.4560   27.2850  147.0610 N.3   112  HIS112     -0.1241
     27  CA        75.2920   27.6490  148.1880 C.3   112  HIS112      0.1621
     28  C         76.5970   28.2590  147.6900 C.2   112  HIS112      0.2264
     29  O         77.3340   27.6300  146.9320 O.2   112  HIS112     -0.2867
     30  CB        75.5630   26.4040  149.0350 C.3   112  HIS112      0.0745
     31  CG        76.4290   26.6490  150.2350 C.ar  112  HIS112      0.0817
     32  ND1       76.3520   25.8770  151.3750 N.ar  112  HIS112     -0.2268
     33  CD2       77.4180   27.5460  150.4590 C.ar  112  HIS112      0.1154
     34  CE1       77.2540   26.2870  152.2480 C.ar  112  HIS112      0.1986
     35  NE2       77.9130   27.3000  151.7180 N.ar  112  HIS112     -0.2212
     36  N         72.0780   30.5540  149.5280 N.3   144  MET144     -0.1245
     37  CA        72.6960   30.4600  150.8330 C.3   144  MET144      0.1570
     38  C         74.0520   31.1380  150.6930 C.2   144  MET144      0.2261
     39  O         74.9720   30.5570  150.1180 O.2   144  MET144     -0.2867
     40  CB        72.8900   28.9970  151.2180 C.3   144  MET144      0.0387
     41  CG        71.6480   28.1650  151.0740 C.3   144  MET144      0.0595
     42  SD        71.9170   26.4870  151.6270 S.3   144  MET144     -0.1393
     43  CE        70.2660   25.7800  151.3260 C.3   144  MET144      0.0692
     44  N         77.4090   32.6580  152.4440 N.3   146  TYR146     -0.1241
     45  CA        78.2040   32.6530  153.6720 C.3   146  TYR146      0.1605
     46  C         79.6270   33.1440  153.4560 C.2   146  TYR146      0.2264
     47  O         80.2640   32.8140  152.4560 O.2   146  TYR146     -0.2867
     48  CB        78.3140   31.2460  154.2730 C.3   146  TYR146      0.0534
     49  CG        77.0210   30.5490  154.5720 C.ar  146  TYR146     -0.0201
     50  CD1       76.4210   29.7300  153.6290 C.ar  146  TYR146     -0.0009
     51  CD2       76.4300   30.6570  155.8190 C.ar  146  TYR146     -0.0009
     52  CE1       75.2650   29.0200  153.9260 C.ar  146  TYR146      0.0417
     53  CE2       75.2680   29.9520  156.1300 C.ar  146  TYR146      0.0417
     54  CZ        74.6920   29.1310  155.1800 C.ar  146  TYR146      0.1957
     55  OH        73.5640   28.4110  155.4850 O.3   146  TYR146     -0.2866
     56  N         69.5710   32.9230  152.3800 N.3   177  LYS177     -0.1245
     57  CA        69.8720   32.1720  153.6090 C.3   177  LYS177      0.1561
     58  C         71.2460   32.5930  154.1270 C.2   177  LYS177      0.2260
     59  O         72.2190   32.6290  153.3760 O.2   177  LYS177     -0.2867
     60  CB        69.8830   30.6730  153.2970 C.3   177  LYS177      0.0271
     61  CG        70.2450   29.8440  154.5330 C.3   177  LYS177      0.0035
     62  CD        70.3270   28.3580  154.1760 C.3   177  LYS177      0.0206
     63  CE        70.7330   27.5050  155.3820 C.3   177  LYS177      0.1093
     64  NZ        70.8500   26.1050  154.9470 N.3   177  LYS177     -0.1314
     65  N         70.0040   30.7650  159.1970 N.3   201  ALA201     -0.1231
     66  CA        70.3920   29.3770  159.3180 C.3   201  ALA201      0.1694
     67  C         70.3760   29.0600  160.8100 C.2   201  ALA201      0.2593
     68  O         70.4680   29.9680  161.6350 O.2   201  ALA201     -0.2718
     69  CB        71.7830   29.1780  158.7420 C.3   201  ALA201      0.0304
     70  N         70.2630   27.7830  161.1580 N.am  202  GLY202     -0.1942
     71  CA        70.2280   27.4090  162.5570 C.3   202  GLY202      0.2014
     72  C         71.5940   27.2340  163.1780 C.2   202  GLY202      0.2639
     73  O         71.7600   27.4490  164.3770 O.2   202  GLY202     -0.2714
     74  N         72.5830   26.8500  162.3790 N.am  203  GLY203     -0.1954
     75  CA        73.9190   26.6400  162.9140 C.3   203  GLY203      0.1869
     76  C         73.9820   25.2790  163.5690 C.2   203  GLY203      0.2309
     77  O         73.0180   24.5190  163.4840 O.2   203  GLY203     -0.2863
     78  N         65.6130   28.9130  158.1900 N.3   228  ALA228     -0.1231
     79  CA        65.9770   27.7250  157.4320 C.3   228  ALA228      0.1694
     80  C         66.9540   26.9500  158.3060 C.2   228  ALA228      0.2592
     81  O         68.1650   26.9980  158.0990 O.2   228  ALA228     -0.2718
     82  CB        66.6310   28.1080  156.1100 C.3   228  ALA228      0.0304
     83  N         66.4220   26.2550  159.3070 N.am  229  VAL229     -0.1966
     84  CA        67.2700   25.4900  160.2070 C.3   229  VAL229      0.1727
     85  C         67.2050   23.9980  159.9530 C.2   229  VAL229      0.2617
     86  O         66.1390   23.4300  159.7240 O.2   229  VAL229     -0.2715
     87  CB        66.9280   25.7670  161.7060 C.3   229  VAL229      0.0290
     88  CG1       66.7630   27.2560  161.9220 C.3   229  VAL229      0.0023
     89  CG2       65.6850   25.0300  162.1210 C.3   229  VAL229      0.0023
     90  N         68.3740   23.3790  159.9910 N.am  230  GLY230     -0.1940
     91  CA        68.4730   21.9590  159.7870 C.3   230  GLY230      0.2014
     92  C         68.7960   21.2520  161.0790 C.2   230  GLY230      0.2639
     93  O         67.8990   20.7890  161.7820 O.2   230  GLY230     -0.2714
     94  N         70.0830   21.1850  161.3940 N.am  231  ARG231     -0.1963
     95  CA        70.5440   20.4940  162.5920 C.3   231  ARG231      0.1729
     96  C         69.7520   20.7490  163.8740 C.2   231  ARG231      0.2616
     97  O         69.3620   19.8000  164.5530 O.2   231  ARG231     -0.2715
     98  CB        72.0310   20.7810  162.8140 C.3   231  ARG231      0.0348
     99  CG        72.9420   19.9990  161.8610 C.3   231  ARG231      0.0492
    100  CD        74.3430   20.5610  161.8560 C.3   231  ARG231      0.2205
    101  NE        74.3120   21.9590  161.4440 N.pl3 231  ARG231     -0.0865
    102  CZ        75.3600   22.7750  161.4540 C.cat 231  ARG231      0.5346
    103  NH1       76.5440   22.3370  161.8650 N.pl3 231  ARG231      0.1354
    104  NH2       75.2220   24.0290  161.0310 N.pl3 231  ARG231      0.1354
    105  N         69.4940   22.0110  164.2020 N.am  232  ASN232     -0.1972
    106  CA        68.7540   22.3000  165.4260 C.3   232  ASN232      0.1688
    107  C         67.3530   21.7300  165.4900 C.2   232  ASN232      0.2292
    108  O         66.7450   21.7090  166.5580 O.2   232  ASN232     -0.2864
    109  CB        68.7090   23.7980  165.7040 C.3   232  ASN232      0.1181
    110  CG        69.8950   24.2490  166.5030 C.2   232  ASN232      0.2629
    111  OD1       70.1290   23.7560  167.6050 O.2   232  ASN232     -0.2716
    112  ND2       70.6710   25.1690  165.9490 N.am  232  ASN232     -0.0877
@<TRIPOS>BOND
     1    29    28    2
     2    26    27    1
     3    28    27    1
     4    27    30    1
     5    30    31    1
     6    36    37    1
     7    39    38    2
     8    31    33   ar
     9    31    32   ar
    10    33    35   ar
    11    38    37    1
    12    37    40    1
    13    41    40    1
    14    41    42    1
    15    43    42    1
    16    32    34   ar
    17    12    13    1
    18    12     9    1
    19    15    13   ar
    20    35    34   ar
    21    13    14   ar
    22    11    10    2
    23     9    10    1
    24     9     8    1
    25    56    57    1
    26    44    45    1
    27    47    46    2
    28    10    16   am
    29    60    57    1
    30    60    61    1
    31    59    58    2
    32    46    45    1
    33    57    58    1
    34    50    52   ar
    35    50    49   ar
    36    45    48    1
    37    52    54   ar
    38    62    61    1
    39    62    63    1
    40    48    49    1
    41    16    17    1
    42    49    51   ar
    43    18    19    2
    44    18    17    1
    45     5     2    1
    46     5     6    1
    47     2     3    1
    48     2     1    1
    49    64    63    1
    50    17    20    1
    51    54    55    1
    52    54    53   ar
    53     3     4    2
    54    51    53   ar
    55     1     7    1
    56    82    79    1
    57     6     7    1
    58    22    21   ar
    59    22    24   ar
    60    20    21    1
    61    21    23   ar
    62    24    25   ar
    63    79    78    1
    64    79    80    1
    65    23    25   ar
    66    81    80    2
    67    80    83   am
    68    69    66    1
    69    65    66    1
    70    83    84    1
    71    66    67    1
    72    86    85    2
    73    91    90    1
    74    91    92    1
    75    85    90   am
    76    85    84    1
    77    84    87    1
    78    67    70   am
    79    67    68    2
    80   104   102    1
    81    92    94   am
    82    92    93    2
    83    70    71    1
    84    94    95    1
    85   101   102    2
    86   101   100    1
    87   102   103    1
    88    87    88    1
    89    87    89    1
    90   100    99    1
    91    99    98    1
    92    74    75    1
    93    74    72   am
    94    71    72    1
    95    95    98    1
    96    95    96    1
    97    75    76    1
    98    72    73    2
    99    77    76    2
   100    96   105   am
   101    96    97    2
   102   105   106    1
   103   106   107    1
   104   106   109    1
   105   107   108    2
   106   109   110    1
   107   112   110   am
   108   110   111    2
