@<TRIPOS>MOLECULE
tmp/2qjoB02.pdb
 99 94 0 0 0
SMALL
GASTEIGER

@<TRIPOS>ATOM
      1  N       -122.3390   28.9910   13.1880 N.3    10  ARG10      -0.1245
      2  CA      -122.7050   28.4920   11.8670 C.3    10  ARG10       0.1563
      3  C       -123.7000   29.4090   11.1340 C.2    10  ARG10       0.2260
      4  O       -123.6020   29.5840    9.9340 O.2    10  ARG10      -0.2867
      5  CB      -123.3290   27.1110   11.9960 C.3    10  ARG10       0.0307
      6  CG      -122.3300   25.9860   11.8910 C.3    10  ARG10       0.0489
      7  CD      -123.0160   24.6300   11.8690 C.3    10  ARG10       0.2205
      8  NE      -123.9470   24.6000   12.9570 N.pl3  10  ARG10      -0.0865
      9  CZ      -125.2500   24.4950   12.7970 C.cat  10  ARG10       0.5346
     10  NH1     -125.7520   24.3450   11.5840 N.pl3  10  ARG10       0.1354
     11  NH2     -126.0460   24.5130   13.8650 N.pl3  10  ARG10       0.1354
     12  N       -127.0550   29.2470   10.2540 N.3    12  GLN12      -0.1245
     13  CA      -127.6280   28.4720    9.1960 C.3    12  GLN12       0.1566
     14  C       -129.1260   28.3750    9.4030 C.2    12  GLN12       0.2260
     15  O       -129.6380   27.3050    9.7220 O.2    12  GLN12      -0.2867
     16  CB      -127.0040   27.0580    9.2020 C.3    12  GLN12       0.0367
     17  CG      -125.5290   27.0100    8.8590 C.3    12  GLN12       0.0905
     18  CD      -125.3140   27.0030    7.3670 C.2    12  GLN12       0.2608
     19  OE1     -126.2370   27.2910    6.5940 O.2    12  GLN12      -0.2717
     20  NE2     -124.1010   26.6600    6.9410 N.am   12  GLN12      -0.0878
     21  N       -130.2600   34.2760   12.3800 N.3    15  HIS15      -0.1241
     22  CA      -131.6170   34.6320   12.8450 C.3    15  HIS15       0.1621
     23  C       -131.6210   35.7720   13.8830 C.2    15  HIS15       0.2264
     24  O       -130.5610   36.3150   14.2110 O.2    15  HIS15      -0.2867
     25  CB      -132.4100   33.4030   13.3180 C.3    15  HIS15       0.0745
     26  CG      -131.7750   32.6610   14.4540 C.ar   15  HIS15       0.0817
     27  ND1     -131.4630   33.2580   15.6600 N.ar   15  HIS15      -0.2268
     28  CD2     -131.4100   31.3640   14.5770 C.ar   15  HIS15       0.1154
     29  CE1     -130.9120   32.3680   16.4650 C.ar   15  HIS15       0.1986
     30  NE2     -130.8760   31.2080   15.8330 N.ar   15  HIS15      -0.2212
     31  N       -128.4550   20.5360    7.6660 N.3    46  ARG46      -0.1245
     32  CA      -127.9430   21.1950    8.8610 C.3    46  ARG46       0.1563
     33  C       -127.0510   22.3960    8.5130 C.2    46  ARG46       0.2260
     34  O       -126.9340   23.3040    9.2970 O.2    46  ARG46      -0.2867
     35  CB      -127.1300   20.2110    9.6820 C.3    46  ARG46       0.0307
     36  CG      -127.2300   20.4500   11.1360 C.3    46  ARG46       0.0489
     37  CD      -126.1570   19.7470   11.9190 C.3    46  ARG46       0.2205
     38  NE      -125.6350   20.5570   13.0320 N.pl3  46  ARG46      -0.0865
     39  CZ      -126.3500   20.9890   14.0860 C.cat  46  ARG46       0.5346
     40  NH1     -127.6700   20.7170   14.1960 N.pl3  46  ARG46       0.1354
     41  NH2     -125.7320   21.7020   15.0320 N.pl3  46  ARG46       0.1354
     42  N       -125.6810   26.8920   24.6670 N.3   110  LYS110     -0.1231
     43  CA      -126.9770   26.2870   24.3360 C.3   110  LYS110      0.1693
     44  C       -127.0740   24.8160   24.7310 C.2   110  LYS110      0.2592
     45  O       -128.0400   24.4120   25.3510 O.2   110  LYS110     -0.2718
     46  CB      -127.2850   26.4610   22.8420 C.3   110  LYS110      0.0285
     47  CG      -128.6490   25.9200   22.3970 C.3   110  LYS110      0.0035
     48  CD      -129.4210   26.9840   21.5870 C.3   110  LYS110      0.0206
     49  CE      -128.8770   27.2220   20.1480 C.3   110  LYS110      0.1093
     50  NZ      -127.4870   26.6990   19.8170 N.3   110  LYS110     -0.1314
     51  N       -126.0720   24.0240   24.3560 N.am  111  ASP111     -0.1974
     52  CA      -126.1330   22.5730   24.5000 C.3   111  ASP111      0.1709
     53  C       -124.7290   21.9930   24.4120 C.2   111  ASP111      0.2293
     54  O       -123.7510   22.7400   24.4080 O.2   111  ASP111     -0.2864
     55  CB      -127.0510   21.9650   23.4230 C.3   111  ASP111      0.1436
     56  CG      -126.7110   22.4550   21.9900 C.2   111  ASP111      0.3671
     57  OD1     -125.5270   22.4350   21.5680 O.co2 111  ASP111     -0.2456
     58  OD2     -127.6540   22.8500   21.2680 O.co2 111  ASP111     -0.2456
     59  N       -136.0390   31.4810   19.3300 N.3   134  PHE134     -0.1227
     60  CA      -135.1920   31.6160   18.1510 C.3   134  PHE134      0.1736
     61  C       -134.2900   30.3990   17.9790 C.2   134  PHE134      0.2596
     62  O       -133.1760   30.3610   18.5030 O.2   134  PHE134     -0.2718
     63  CB      -134.3470   32.8880   18.2410 C.3   134  PHE134      0.0547
     64  CG      -135.1570   34.1530   18.2560 C.ar  134  PHE134     -0.0202
     65  CD1     -136.2440   34.3060   17.4110 C.ar  134  PHE134     -0.0042
     66  CD2     -134.8320   35.1900   19.1140 C.ar  134  PHE134     -0.0042
     67  CE1     -136.9910   35.4680   17.4220 C.ar  134  PHE134     -0.0003
     68  CE2     -135.5750   36.3550   19.1300 C.ar  134  PHE134     -0.0003
     69  CZ      -136.6560   36.4940   18.2830 C.ar  134  PHE134     -0.0000
     70  N       -134.7770   29.4060   17.2420 N.am  135  SER135     -0.1938
     71  CA      -134.0660   28.1390   17.0950 C.3   135  SER135      0.2055
     72  C       -133.7630   27.8520   15.6160 C.2   135  SER135      0.2644
     73  O       -134.6820   27.6860   14.8050 O.2   135  SER135     -0.2714
     74  CB      -134.9080   27.0200   17.7050 C.3   135  SER135      0.2130
     75  OG      -134.4590   25.7570   17.2790 O.3   135  SER135     -0.2179
     76  N       -132.4770   27.8020   15.2690 N.am  136  SER136     -0.1935
     77  CA      -132.0440   27.4950   13.9090 C.3   136  SER136      0.2055
     78  C       -132.6980   26.2000   13.3590 C.2   136  SER136      0.2643
     79  O       -133.2090   26.1540   12.2260 O.2   136  SER136     -0.2714
     80  CB      -130.5130   27.3870   13.8410 C.3   136  SER136      0.2130
     81  OG      -129.8440   28.6190   14.0270 O.3   136  SER136     -0.2179
     82  N       -132.6580   25.1580   14.1740 N.am  137  THR137     -0.1950
     83  CA      -133.2640   23.8760   13.8450 C.3   137  THR137      0.1897
     84  C       -134.7290   24.0450   13.5020 C.2   137  THR137      0.2313
     85  O       -135.1980   23.4930   12.5050 O.2   137  THR137     -0.2863
     86  CB      -133.0540   22.8410   15.0170 C.3   137  THR137      0.1794
     87  OG1     -131.6570   22.7710   15.3270 O.3   137  THR137     -0.2208
     88  CG2     -133.5060   21.4500   14.6350 C.3   137  THR137      0.0378
     89  N       -134.9730   26.0480   10.0690 N.3   140  ARG140     -0.1245
     90  CA      -134.6830   25.1520    8.9330 C.3   140  ARG140      0.1563
     91  C       -135.8150   24.1700    8.6810 C.2   140  ARG140      0.2260
     92  O       -136.2170   23.9680    7.5380 O.2   140  ARG140     -0.2867
     93  CB      -133.3800   24.4030    9.1380 C.3   140  ARG140      0.0307
     94  CG      -132.1500   25.2620    8.9820 C.3   140  ARG140      0.0489
     95  CD      -130.8730   24.4030    8.9310 C.3   140  ARG140      0.2205
     96  NE      -130.7310   23.5630   10.1220 N.pl3 140  ARG140     -0.0865
     97  CZ      -130.1650   23.9550   11.2720 C.cat 140  ARG140      0.5346
     98  NH1     -129.6570   25.1910   11.4050 N.pl3 140  ARG140      0.1354
     99  NH2     -130.1100   23.1040   12.3050 N.pl3 140  ARG140      0.1354
@<TRIPOS>BOND
     1    19    18    2
     2    20    18   am
     3    18    17    1
     4    92    91    2
     5    31    32    1
     6    33    32    1
     7    33    34    2
     8    91    90    1
     9    17    16    1
    10    32    35    1
    11    95    94    1
    12    95    96    1
    13    90    93    1
    14    90    89    1
    15    94    93    1
    16    13    16    1
    17    13    14    1
    18    13    12    1
    19    14    15    2
    20    35    36    1
    21     4     3    2
    22    96    97    2
    23     3     2    1
    24    36    37    1
    25    97    98    1
    26    97    99    1
    27    10     9    1
    28     2     5    1
    29     2     1    1
    30     7     6    1
    31     7     8    1
    32     6     5    1
    33    37    38    1
    34    79    78    2
    35    21    22    1
    36    85    84    2
    37     9     8    2
    38     9    11    1
    39    22    25    1
    40    22    23    1
    41    38    39    2
    42    25    26    1
    43    78    77    1
    44    78    82   am
    45    84    83    1
    46    80    77    1
    47    80    81    1
    48    83    82    1
    49    83    86    1
    50    23    24    2
    51    77    76    1
    52    39    40    1
    53    39    41    1
    54    26    28   ar
    55    26    27   ar
    56    28    30   ar
    57    88    86    1
    58    73    72    2
    59    86    87    1
    60    76    72   am
    61    72    71    1
    62    27    29   ar
    63    30    29   ar
    64    71    70    1
    65    71    74    1
    66    70    61   am
    67    75    74    1
    68    65    67   ar
    69    65    64   ar
    70    67    69   ar
    71    61    60    1
    72    61    62    2
    73    60    63    1
    74    60    59    1
    75    63    64    1
    76    64    66   ar
    77    69    68   ar
    78    66    68   ar
    79    50    49    1
    80    49    48    1
    81    58    56   ar
    82    57    56   ar
    83    48    47    1
    84    56    55    1
    85    47    46    1
    86    46    43    1
    87    55    52    1
    88    43    42    1
    89    43    44    1
    90    51    52    1
    91    51    44   am
    92    54    53    2
    93    53    52    1
    94    44    45    2
