@<TRIPOS>MOLECULE
tmp/2qjoB00.pdb
 207 198 0 0 0
SMALL
GASTEIGER

@<TRIPOS>ATOM
      1  N       -136.6570   12.9110    3.4920 N.3   181  PHE181     -0.1241
      2  CA      -136.0920   11.5910    3.6630 C.3   181  PHE181      0.1605
      3  C       -135.6460   11.2830    5.1080 C.2   181  PHE181      0.2264
      4  O       -136.0430   10.2570    5.6670 O.2   181  PHE181     -0.2867
      5  CB      -134.9560   11.3390    2.6790 C.3   181  PHE181      0.0534
      6  CG      -134.1170   10.1290    3.0320 C.ar  181  PHE181     -0.0203
      7  CD1     -134.4870    8.8520    2.5850 C.ar  181  PHE181     -0.0042
      8  CD2     -132.9580   10.2660    3.8180 C.ar  181  PHE181     -0.0042
      9  CE1     -133.7070    7.7280    2.9060 C.ar  181  PHE181     -0.0003
     10  CE2     -132.1880    9.1520    4.1550 C.ar  181  PHE181     -0.0003
     11  CZ      -132.5510    7.8850    3.6890 C.ar  181  PHE181     -0.0000
     12  N       -137.0410    8.7460    7.8230 N.3   185  TYR185     -0.1241
     13  CA      -136.1000    7.7790    8.3500 C.3   185  TYR185      0.1605
     14  C       -136.1180    7.7210    9.8740 C.2   185  TYR185      0.2264
     15  O       -136.1360    6.6250   10.4520 O.2   185  TYR185     -0.2867
     16  CB      -134.6940    8.0660    7.8590 C.3   185  TYR185      0.0534
     17  CG      -133.7330    6.9480    8.1390 C.ar  185  TYR185     -0.0201
     18  CD1     -132.9820    6.9290    9.3190 C.ar  185  TYR185     -0.0009
     19  CD2     -133.5670    5.9050    7.2290 C.ar  185  TYR185     -0.0009
     20  CE1     -132.1030    5.9120    9.5780 C.ar  185  TYR185      0.0417
     21  CE2     -132.6750    4.8700    7.4880 C.ar  185  TYR185      0.0417
     22  CZ      -131.9470    4.8870    8.6650 C.ar  185  TYR185      0.1957
     23  OH      -131.0570    3.8700    8.9430 O.3   185  TYR185     -0.2866
     24  N       -138.2200    4.9010   13.2130 N.3   189  TRP189     -0.1241
     25  CA      -137.6150    4.3290   14.4280 C.3   189  TRP189      0.1605
     26  C       -138.2990    4.8410   15.6600 C.2   189  TRP189      0.2264
     27  O       -137.8400    4.6010   16.7990 O.2   189  TRP189     -0.2867
     28  CB      -136.1150    4.6570   14.5440 C.3   189  TRP189      0.0550
     29  CG      -135.2380    3.9210   13.5730 C.ar  189  TRP189      0.0003
     30  CD1     -134.8010    4.3700   12.3590 C.ar  189  TRP189      0.0946
     31  CD2     -134.7030    2.6070   13.7330 C.ar  189  TRP189      0.0152
     32  NE1     -134.0230    3.4150   11.7560 N.ar  189  TRP189     -0.2442
     33  CE2     -133.9540    2.3190   12.5800 C.ar  189  TRP189      0.0810
     34  CE3     -134.7880    1.6410   14.7390 C.ar  189  TRP189      0.0012
     35  CZ2     -133.2910    1.0960   12.4080 C.ar  189  TRP189      0.0191
     36  CZ3     -134.1330    0.4440   14.5770 C.ar  189  TRP189      0.0001
     37  CH2     -133.3860    0.1740   13.4220 C.ar  189  TRP189      0.0015
     38  N       -126.3990    3.0730   14.7580 N.3   198  PHE198     -0.1241
     39  CA      -126.0870    2.5060   13.4600 C.3   198  PHE198      0.1605
     40  C       -124.6090    2.1780   13.3470 C.2   198  PHE198      0.2264
     41  O       -123.7510    2.9240   13.8470 O.2   198  PHE198     -0.2867
     42  CB      -126.5300    3.4990   12.3650 C.3   198  PHE198      0.0534
     43  CG      -128.0060    3.8320   12.4320 C.ar  198  PHE198     -0.0203
     44  CD1     -128.9650    2.8160   12.3480 C.ar  198  PHE198     -0.0042
     45  CD2     -128.4380    5.1480   12.6460 C.ar  198  PHE198     -0.0042
     46  CE1     -130.3460    3.1090   12.4520 C.ar  198  PHE198     -0.0003
     47  CE2     -129.8150    5.4660   12.7410 C.ar  198  PHE198     -0.0003
     48  CZ      -130.7700    4.4260   12.6440 C.ar  198  PHE198     -0.0000
     49  N       -121.6050    1.1440   10.4900 N.3   200  THR200     -0.1218
     50  CA      -121.2740    1.0790    9.0810 C.3   200  THR200      0.1862
     51  C       -119.7840    0.7990    8.9890 C.2   200  THR200      0.2287
     52  O       -119.0690    0.9540    9.9640 O.2   200  THR200     -0.2866
     53  CB      -121.5370    2.4430    8.3450 C.3   200  THR200      0.1770
     54  OG1     -120.7660    3.4770    8.9650 O.3   200  THR200     -0.2211
     55  CG2     -122.9960    2.8600    8.3960 C.3   200  THR200      0.0375
     56  N       -116.2580    1.5030    6.2410 N.3   202  ASP202     -0.1239
     57  CA      -115.8370    2.3460    5.1160 C.3   202  ASP202      0.1674
     58  C       -114.5000    1.8370    4.7090 C.2   202  ASP202      0.2266
     59  O       -113.7010    1.4270    5.5610 O.2   202  ASP202     -0.2867
     60  CB      -115.7130    3.8350    5.4800 C.3   202  ASP202      0.1410
     61  CG      -117.0610    4.5410    5.5560 C.2   202  ASP202      0.3668
     62  OD1     -117.7690    4.6750    4.5510 O.co2 202  ASP202     -0.2456
     63  OD2     -117.4420    4.9970    6.6420 O.co2 202  ASP202     -0.2456
     64  N       -122.2670    9.1080   -4.2440 N.3   216  ARG216     -0.1245
     65  CA      -123.2990    8.4310   -3.4930 C.3   216  ARG216      0.1563
     66  C       -124.5400    8.2060   -4.3370 C.2   216  ARG216      0.2260
     67  O       -124.9360    9.0310   -5.1420 O.2   216  ARG216     -0.2867
     68  CB      -123.6200    9.1690   -2.2020 C.3   216  ARG216      0.0307
     69  CG      -122.5710    8.9190   -1.1420 C.3   216  ARG216      0.0489
     70  CD      -122.9600    9.4740    0.2020 C.3   216  ARG216      0.2205
     71  NE      -124.2370    8.9240    0.5890 N.pl3 216  ARG216     -0.0865
     72  CZ      -124.4250    7.7180    1.1270 C.cat 216  ARG216      0.5346
     73  NH1     -123.4020    6.9080    1.3890 N.pl3 216  ARG216      0.1354
     74  NH2     -125.6570    7.3260    1.4110 N.pl3 216  ARG216      0.1354
     75  N       -127.4270    6.3720   -2.7870 N.3   218  ALA218     -0.1231
     76  CA      -128.5760    6.3710   -1.8970 C.3   218  ALA218      0.1694
     77  C       -128.5790    7.7080   -1.1400 C.2   218  ALA218      0.2591
     78  O       -127.5290    8.3120   -0.9720 O.2   218  ALA218     -0.2718
     79  CB      -128.4710    5.1810   -0.9070 C.3   218  ALA218      0.0304
     80  N       -129.7550    8.1680   -0.7260 N.am  219  LYS219     -0.1980
     81  CA      -129.8870    9.2790    0.2180 C.3   219  LYS219      0.1596
     82  C       -129.4030    8.8050    1.5830 C.2   219  LYS219      0.2287
     83  O       -129.4360    7.6090    1.8550 O.2   219  LYS219     -0.2864
     84  CB      -131.3470    9.6860    0.3320 C.3   219  LYS219      0.0298
     85  CG      -131.8160   10.4740   -0.8480 C.3   219  LYS219      0.0038
     86  CD      -133.3100   10.6670   -0.8490 C.3   219  LYS219      0.0206
     87  CE      -133.8750   10.5610   -2.2700 C.3   219  LYS219      0.1093
     88  NZ      -135.3570   10.6080   -2.2190 N.3   219  LYS219     -0.1314
     89  N       -116.4970    7.7740    0.4950 N.3   227  LEU227     -0.1245
     90  CA      -115.7530    6.5350    0.5370 C.3   227  LEU227      0.1561
     91  C       -116.7840    5.4420    0.2860 C.2   227  LEU227      0.2260
     92  O       -117.9620    5.6420    0.5790 O.2   227  LEU227     -0.2867
     93  CB      -115.1440    6.3720    1.9150 C.3   227  LEU227      0.0270
     94  CG      -113.9870    7.2830    2.2900 C.3   227  LEU227      0.0019
     95  CD1     -113.7630    7.1700    3.7820 C.3   227  LEU227      0.0001
     96  CD2     -112.6840    6.9340    1.4870 C.3   227  LEU227      0.0001
     97  N       -118.7990    2.5220    1.4560 N.3   229  GLY229     -0.1210
     98  CA      -119.1010    1.9080    2.7530 C.3   229  GLY229      0.1956
     99  C       -120.5750    1.6990    2.9710 C.2   229  GLY229      0.2612
    100  O       -121.3900    2.1740    2.2020 O.2   229  GLY229     -0.2717
    101  N       -120.9650    1.0260    4.0270 N.am  230  GLY230     -0.1942
    102  CA      -122.3800    0.8460    4.2100 C.3   230  GLY230      0.2014
    103  C       -122.6850    0.0940    5.4620 C.2   230  GLY230      0.2639
    104  O       -121.7970   -0.2030    6.2470 O.2   230  GLY230     -0.2714
    105  N       -123.9580   -0.2230    5.6420 N.am  231  PHE231     -0.1959
    106  CA      -124.4370   -0.8640    6.8590 C.3   231  PHE231      0.1771
    107  C       -123.9330   -2.2840    7.0260 C.2   231  PHE231      0.2619
    108  O       -123.9460   -3.0630    6.0590 O.2   231  PHE231     -0.2715
    109  CB      -125.9570   -0.8120    6.8920 C.3   231  PHE231      0.0574
    110  CG      -126.4750    0.5630    7.0700 C.ar  231  PHE231     -0.0200
    111  CD1     -126.6680    1.3970    5.9580 C.ar  231  PHE231     -0.0042
    112  CD2     -126.7190    1.0620    8.3480 C.ar  231  PHE231     -0.0042
    113  CE1     -127.1380    2.6850    6.1090 C.ar  231  PHE231     -0.0003
    114  CE2     -127.1680    2.3600    8.5140 C.ar  231  PHE231     -0.0003
    115  CZ      -127.3800    3.1780    7.3890 C.ar  231  PHE231     -0.0000
    116  N       -123.4770   -2.6080    8.2370 N.am  232  ILE232     -0.1977
    117  CA      -123.0620   -3.9670    8.5680 C.3   232  ILE232      0.1596
    118  C       -124.2900   -4.8850    8.5660 C.2   232  ILE232      0.2287
    119  O       -125.3360   -4.5200    9.1100 O.2   232  ILE232     -0.2864
    120  CB      -122.3120   -4.0100    9.9230 C.3   232  ILE232      0.0276
    121  CG1     -121.5950   -5.3340   10.1380 C.3   232  ILE232      0.0022
    122  CG2     -123.2200   -3.6840   11.1080 C.3   232  ILE232      0.0022
    123  CD1     -120.4420   -5.5040    9.2530 C.3   232  ILE232      0.0001
    124  N       -119.0400   -4.3280    0.8310 N.3   245  GLU245     -0.1245
    125  CA      -119.4420   -3.0080    0.3770 C.3   245  GLU245      0.1567
    126  C       -118.4580   -2.4620   -0.6510 C.2   245  GLU245      0.2260
    127  O       -118.8670   -1.8240   -1.6120 O.2   245  GLU245     -0.2867
    128  CB      -119.5340   -2.0240    1.5520 C.3   245  GLU245      0.0388
    129  CG      -120.7130   -2.2150    2.5060 C.3   245  GLU245      0.1160
    130  CD      -122.0740   -1.8380    1.8850 C.2   245  GLU245      0.3649
    131  OE1     -123.0930   -2.4610    2.2910 O.co2 245  GLU245     -0.2457
    132  OE2     -122.1490   -0.9270    1.0070 O.co2 245  GLU245     -0.2457
    133  N       -119.9670   -1.3950   -4.4010 N.3   249  GLU249     -0.1245
    134  CA      -120.0090   -0.0050   -4.8560 C.3   249  GLU249      0.1567
    135  C       -118.9150    0.3690   -5.8680 C.2   249  GLU249      0.2260
    136  O       -119.0390    1.3780   -6.5490 O.2   249  GLU249     -0.2867
    137  CB      -120.0210    0.9680   -3.6550 C.3   249  GLU249      0.0388
    138  CG      -120.9960    0.5740   -2.5420 C.3   249  GLU249      0.1160
    139  CD      -121.3550    1.7060   -1.5740 C.2   249  GLU249      0.3649
    140  OE1     -120.7250    2.7900   -1.5880 O.co2 249  GLU249     -0.2457
    141  OE2     -122.2790    1.5120   -0.7590 O.co2 249  GLU249     -0.2457
    142  N       -121.6110   13.1070   13.2900 N.3   274  ARG274     -0.1231
    143  CA      -121.0740   12.8470   11.9400 C.3   274  ARG274      0.1694
    144  C       -122.1800   12.6070   10.8900 C.2   274  ARG274      0.2592
    145  O       -122.0130   12.9140    9.7370 O.2   274  ARG274     -0.2718
    146  CB      -120.0240   11.7070   11.9360 C.3   274  ARG274      0.0321
    147  CG      -120.4950   10.3040   12.3670 C.3   274  ARG274      0.0489
    148  CD      -119.2740    9.3100   12.4240 C.3   274  ARG274      0.2205
    149  NE      -118.7650    9.1580   11.0720 N.pl3 274  ARG274     -0.0865
    150  CZ      -119.3920    8.4510   10.1360 C.cat 274  ARG274      0.5346
    151  NH1     -120.4910    7.7540   10.4410 N.pl3 274  ARG274      0.1354
    152  NH2     -118.9430    8.4500    8.9040 N.pl3 274  ARG274      0.1354
    153  N       -123.3150   12.0680   11.2970 N.am  275  SER275     -0.1952
    154  CA      -124.3430   11.6820   10.3510 C.3   275  SER275      0.1924
    155  C       -125.6930   12.2190   10.8110 C.2   275  SER275      0.2314
    156  O       -126.0190   12.1420   12.0030 O.2   275  SER275     -0.2863
    157  CB      -124.4290   10.1690   10.2540 C.3   275  SER275      0.2116
    158  OG      -125.3780    9.8210    9.2490 O.3   275  SER275     -0.2180
    159  N       -128.5440   11.0430   10.0660 N.3   277  ARG277     -0.1245
    160  CA      -129.5390   10.0050   10.0740 C.3   277  ARG277      0.1563
    161  C       -130.0700    9.6630   11.4630 C.2   277  ARG277      0.2260
    162  O       -131.0460    8.9420   11.5400 O.2   277  ARG277     -0.2867
    163  CB      -129.1990    8.8530    9.1290 C.3   277  ARG277      0.0307
    164  CG      -128.6000    7.6000    9.6910 C.3   277  ARG277      0.0489
    165  CD      -128.2480    6.7310    8.4720 C.3   277  ARG277      0.2205
    166  NE      -126.8220    6.7850    8.3890 N.pl3 277  ARG277     -0.0865
    167  CZ      -126.0910    6.8750    7.3020 C.cat 277  ARG277      0.5346
    168  NH1     -126.6270    6.9060    6.1170 N.pl3 277  ARG277      0.1354
    169  NH2     -124.7800    6.9250    7.4450 N.pl3 277  ARG277      0.1354
    170  N       -124.3640    7.2620   14.1910 N.3   280  THR280     -0.1218
    171  CA      -123.7350    6.3110   13.3040 C.3   280  THR280      0.1862
    172  C       -122.2520    6.2750   13.5360 C.2   280  THR280      0.2287
    173  O       -121.5560    7.2790   13.3460 O.2   280  THR280     -0.2866
    174  CB      -123.9520    6.7020   11.8540 C.3   280  THR280      0.1770
    175  OG1     -125.3550    6.8400   11.6170 O.3   280  THR280     -0.2211
    176  CG2     -123.4010    5.6230   10.9330 C.3   280  THR280      0.0375
    177  N       -118.8280   13.7500    1.3560 N.3   322  TYR322     -0.1227
    178  CA      -119.8710   13.3710    2.2990 C.3   322  TYR322      0.1736
    179  C       -119.4170   13.3210    3.7520 C.2   322  TYR322      0.2595
    180  O       -118.3280   12.7950    4.0420 O.2   322  TYR322     -0.2718
    181  CB      -120.2980   11.9680    1.9330 C.3   322  TYR322      0.0548
    182  CG      -121.4810   11.4000    2.6670 C.ar  322  TYR322     -0.0200
    183  CD1     -122.7050   12.0790    2.7680 C.ar  322  TYR322     -0.0009
    184  CD2     -121.4000   10.1430    3.1920 C.ar  322  TYR322     -0.0009
    185  CE1     -123.8030   11.4920    3.4270 C.ar  322  TYR322      0.0417
    186  CE2     -122.4790    9.5420    3.8430 C.ar  322  TYR322      0.0417
    187  CZ      -123.6480   10.1940    3.9530 C.ar  322  TYR322      0.1957
    188  OH      -124.6280    9.4970    4.6170 O.3   322  TYR322     -0.2866
    189  N       -120.2910   13.7830    4.6540 N.am  323  GLU323     -0.1979
    190  CA      -120.1210   13.6670    6.1140 C.3   323  GLU323      0.1602
    191  C       -118.6770   13.9150    6.4890 C.2   323  GLU323      0.2287
    192  O       -118.1350   14.9170    6.0630 O.2   323  GLU323     -0.2864
    193  CB      -120.6620   12.3240    6.6200 C.3   323  GLU323      0.0415
    194  CG      -122.1810   12.2470    6.4720 C.3   323  GLU323      0.1163
    195  CD      -122.7960   10.9810    7.0190 C.2   323  GLU323      0.3649
    196  OE1     -122.0410   10.1150    7.5330 O.co2 323  GLU323     -0.2457
    197  OE2     -124.0520   10.8480    6.9180 O.co2 323  GLU323     -0.2457
    198  N       -116.0110   12.0780    5.6640 N.3   325  HIS325     -0.1241
    199  CA      -115.0740   11.2400    4.9350 C.3   325  HIS325      0.1621
    200  C       -113.7040   11.8870    4.6470 C.2   325  HIS325      0.2264
    201  O       -112.6920   11.1750    4.5430 O.2   325  HIS325     -0.2867
    202  CB      -115.7270   10.6980    3.6990 C.3   325  HIS325      0.0745
    203  CG      -116.7650    9.6750    3.9880 C.ar  325  HIS325      0.0817
    204  ND1     -117.3980    8.9550    2.9970 N.ar  325  HIS325     -0.2268
    205  CD2     -117.2800    9.2380    5.1620 C.ar  325  HIS325      0.1154
    206  CE1     -118.2900    8.1490    3.5510 C.ar  325  HIS325      0.1986
    207  NE2     -118.2330    8.2960    4.8650 N.ar  325  HIS325     -0.2212
@<TRIPOS>BOND
     1   136   135    2
     2   135   134    1
     3    67    66    2
     4   134   133    1
     5   134   137    1
     6    66    65    1
     7    64    65    1
     8   137   138    1
     9    65    68    1
    10    75    76    1
    11   138   139    1
    12    87    88    1
    13    87    86    1
    14    68    69    1
    15    76    77    1
    16    76    79    1
    17   127   126    2
    18   140   139   ar
    19   139   141   ar
    20    69    70    1
    21    77    78    2
    22    77    80   am
    23    86    85    1
    24    85    84    1
    25    80    81    1
    26   126   125    1
    27    70    71    1
    28    81    84    1
    29    81    82    1
    30    91    90    1
    31    91    92    2
    32   125   124    1
    33   125   128    1
    34    89    90    1
    35    90    93    1
    36    71    72    2
    37   132   130   ar
    38    72    73    1
    39    72    74    1
    40   177   178    1
    41    97    98    1
    42    96    94    1
    43   128   129    1
    44    82    83    2
    45   130   131   ar
    46   130   129    1
    47    93    94    1
    48   181   178    1
    49   181   182    1
    50   100    99    2
    51    94    95    1
    52   178   179    1
    53     7     9   ar
    54     7     6   ar
    55   182   183   ar
    56   182   184   ar
    57     5     6    1
    58     5     2    1
    59    98    99    1
    60   183   185   ar
    61     9    11   ar
    62    99   101   am
    63   204   206   ar
    64   204   203   ar
    65     6     8   ar
    66   184   186   ar
    67   185   187   ar
    68     1     2    1
    69   206   207   ar
    70     2     3    1
    71    11    10   ar
    72   202   203    1
    73   202   199    1
    74   179   180    2
    75   179   189   am
    76     8    10   ar
    77   186   187   ar
    78   187   188    1
    79   203   205   ar
    80   101   102    1
    81   102   103    1
    82   201   200    2
    83    62    61   ar
    84   200   199    1
    85   189   190    1
    86    58    57    1
    87    58    59    2
    88   207   205   ar
    89   199   198    1
    90     3     4    2
    91    57    60    1
    92    57    56    1
    93   103   105   am
    94   103   104    2
    95    60    61    1
    96    61    63   ar
    97   105   106    1
    98   111   113   ar
    99   111   110   ar
   100   108   107    2
   101   192   191    2
   102   113   115   ar
   103   190   191    1
   104   190   193    1
   105   168   167    1
   106   194   193    1
   107   194   195    1
   108   106   109    1
   109   106   107    1
   110   109   110    1
   111   197   195   ar
   112   195   196   ar
   113   107   116   am
   114   110   112   ar
   115    19    21   ar
   116    19    17   ar
   117   167   169    1
   118   167   166    2
   119   115   114   ar
   120    21    22   ar
   121    12    13    1
   122    16    17    1
   123    16    13    1
   124    17    18   ar
   125   116   117    1
   126    53    55    1
   127    53    54    1
   128    53    50    1
   129   112   114   ar
   130    13    14    1
   131   166   165    1
   132   165   164    1
   133   118   117    1
   134   118   119    2
   135   117   120    1
   136    22    23    1
   137    22    20   ar
   138   152   150    1
   139    51    50    1
   140    51    52    2
   141    50    49    1
   142   163   164    1
   143   163   160    1
   144   158   157    1
   145   123   121    1
   146    18    20   ar
   147   145   144    2
   148    14    15    2
   149   120   121    1
   150   120   122    1
   151   159   160    1
   152   160   161    1
   153   150   151    1
   154   150   149    2
   155   157   154    1
   156   154   155    1
   157   154   153    1
   158   155   156    2
   159   144   153   am
   160   144   143    1
   161   176   174    1
   162   149   148    1
   163   161   162    2
   164   175   174    1
   165    32    30   ar
   166    32    33   ar
   167   174   171    1
   168   146   143    1
   169   146   147    1
   170   143   142    1
   171    44    43   ar
   172    44    46   ar
   173    30    29   ar
   174    42    43    1
   175    42    39    1
   176   147   148    1
   177    35    33   ar
   178    35    37   ar
   179    43    45   ar
   180    46    48   ar
   181    33    31   ar
   182    48    47   ar
   183    45    47   ar
   184    24    25    1
   185   171   172    1
   186   171   170    1
   187   173   172    2
   188    40    39    1
   189    40    41    2
   190    37    36   ar
   191    39    38    1
   192    29    31   ar
   193    29    28    1
   194    31    34   ar
   195    25    28    1
   196    25    26    1
   197    36    34   ar
   198    26    27    2
