@<TRIPOS>MOLECULE
tmp/2qjpB00.pdb
 114 111 0 0 0
SMALL
GASTEIGER

@<TRIPOS>ATOM
      1  N        -13.5310   86.0330   69.1880 N.3    13  PHE13      -0.1227
      2  CA       -12.9030   86.0260   67.8690 C.3    13  PHE13       0.1736
      3  C        -12.9100   87.3070   67.0410 C.2    13  PHE13       0.2595
      4  O        -12.2070   87.3900   66.0350 O.2    13  PHE13      -0.2718
      5  CB       -13.5050   84.8910   67.0430 C.3    13  PHE13       0.0547
      6  CG       -15.0080   84.8730   67.0380 C.ar   13  PHE13      -0.0202
      7  CD1      -15.7290   85.7480   66.2330 C.ar   13  PHE13      -0.0042
      8  CD2      -15.7070   83.9770   67.8420 C.ar   13  PHE13      -0.0042
      9  CE1      -17.1290   85.7270   66.2270 C.ar   13  PHE13      -0.0003
     10  CE2      -17.1080   83.9490   67.8450 C.ar   13  PHE13      -0.0003
     11  CZ       -17.8180   84.8240   67.0360 C.ar   13  PHE13      -0.0000
     12  N        -13.6880   88.3020   67.4450 N.am   14  GLU14      -0.1965
     13  CA       -13.7330   89.5440   66.6850 C.3    14  GLU14       0.1733
     14  C        -12.4350   90.3160   66.8540 C.2    14  GLU14       0.2617
     15  O        -11.6600   90.0420   67.7670 O.2    14  GLU14      -0.2715
     16  CB       -14.9200   90.3890   67.1370 C.3    14  GLU14       0.0429
     17  CG       -16.2520   89.6880   66.9350 C.3    14  GLU14       0.1163
     18  CD       -17.4310   90.6340   67.0200 C.2    14  GLU14       0.3649
     19  OE1      -17.2990   91.7800   66.5310 O.co2  14  GLU14      -0.2457
     20  OE2      -18.4840   90.2270   67.5580 O.co2  14  GLU14      -0.2457
     21  N        -12.1950   91.2750   65.9650 N.am   15  GLY15      -0.1941
     22  CA       -10.9740   92.0560   66.0320 C.3    15  GLY15       0.1998
     23  C         -9.8220   91.3290   65.3600 C.2    15  GLY15       0.2480
     24  O         -9.7860   90.0990   65.3650 O.2    15  GLY15      -0.2729
     25  N         -8.8560   92.0590   64.7810 N.am   16  PRO16      -0.2726
     26  CA        -7.7190   91.4200   64.1120 C.3    16  PRO16       0.1402
     27  C         -6.9090   90.5040   65.0260 C.2    16  PRO16       0.2269
     28  O         -6.0870   89.7230   64.5560 O.2    16  PRO16      -0.2865
     29  CB        -6.9030   92.6100   63.6120 C.3    16  PRO16       0.0296
     30  CG        -7.1830   93.6650   64.6410 C.3    16  PRO16       0.0237
     31  CD        -8.6740   93.5210   64.8350 C.3    16  PRO16       0.0939
     32  N        -20.6340   98.0200   58.4760 N.3   120  GLN120     -0.1231
     33  CA       -19.9190   96.7470   58.5400 C.3   120  GLN120      0.1698
     34  C        -18.4140   96.9690   58.5070 C.2   120  GLN120      0.2592
     35  O        -17.6480   96.1950   59.0850 O.2   120  GLN120     -0.2718
     36  CB       -20.3010   95.8380   57.3710 C.3   120  GLN120      0.0381
     37  CG       -21.7680   95.4840   57.2800 C.3   120  GLN120      0.0905
     38  CD       -22.0100   94.3230   56.3380 C.2   120  GLN120      0.2608
     39  OE1      -21.4020   94.2420   55.2680 O.2   120  GLN120     -0.2717
     40  NE2      -22.9030   93.4190   56.7260 N.am  120  GLN120     -0.0878
     41  N        -17.9950   98.0240   57.8160 N.am  121  LEU121     -0.1966
     42  CA       -16.5800   98.3520   57.7040 C.3   121  LEU121      0.1728
     43  C        -16.0080   98.4850   59.1140 C.2   121  LEU121      0.2616
     44  O        -14.7920   98.5460   59.3020 O.2   121  LEU121     -0.2715
     45  CB       -16.4060   99.6650   56.9320 C.3   121  LEU121      0.0311
     46  CG       -15.0270  100.0120   56.3620 C.3   121  LEU121      0.0022
     47  CD1      -14.6320   98.9940   55.3020 C.3   121  LEU121      0.0001
     48  CD2      -15.0690  101.4100   55.7580 C.3   121  LEU121      0.0001
     49  N        -16.9030   98.5260   60.0980 N.am  122  PHE122     -0.1960
     50  CA       -16.5210   98.6440   61.5010 C.3   122  PHE122      0.1771
     51  C        -17.1470   97.5410   62.3680 C.2   122  PHE122      0.2620
     52  O        -16.5380   97.0880   63.3370 O.2   122  PHE122     -0.2715
     53  CB       -16.9500  100.0060   62.0660 C.3   122  PHE122      0.0574
     54  CG       -16.2240  101.1840   61.4690 C.ar  122  PHE122     -0.0200
     55  CD1      -16.4240  101.5530   60.1430 C.ar  122  PHE122     -0.0042
     56  CD2      -15.3550  101.9420   62.2500 C.ar  122  PHE122     -0.0042
     57  CE1      -15.7710  102.6620   59.6040 C.ar  122  PHE122     -0.0003
     58  CE2      -14.6970  103.0510   61.7220 C.ar  122  PHE122     -0.0003
     59  CZ       -14.9070  103.4130   60.3970 C.ar  122  PHE122     -0.0000
     60  N        -18.3580   97.1100   62.0130 N.am  123  ASN123     -0.1958
     61  CA       -19.0870   96.0890   62.7780 C.3   123  ASN123      0.1819
     62  C        -19.0640   94.6510   62.2520 C.2   123  ASN123      0.2621
     63  O        -19.6810   93.7700   62.8530 O.2   123  ASN123     -0.2715
     64  CB       -20.5570   96.5010   62.9290 C.3   123  ASN123      0.1195
     65  CG       -20.7480   97.6790   63.8610 C.2   123  ASN123      0.2630
     66  OD1      -20.5100   97.5780   65.0640 O.2   123  ASN123     -0.2716
     67  ND2      -21.1860   98.8060   63.3080 N.am  123  ASN123     -0.0877
     68  N        -18.3740   94.4060   61.1440 N.am  124  GLY124     -0.1954
     69  CA       -18.3450   93.0580   60.5980 C.3   124  GLY124      0.1869
     70  C        -19.6800   92.7710   59.9380 C.2   124  GLY124      0.2309
     71  O        -20.4470   93.6980   59.6810 O.2   124  GLY124     -0.2863
     72  N        -19.7940   79.9050   64.5090 N.3   216  MET216     -0.1245
     73  CA       -18.9080   80.8290   63.8140 C.3   216  MET216      0.1570
     74  C        -17.6920   80.0280   63.3840 C.2   216  MET216      0.2261
     75  O        -17.1680   80.2250   62.2930 O.2   216  MET216     -0.2867
     76  CB       -18.4500   81.9800   64.7070 C.3   216  MET216      0.0387
     77  CG       -17.5050   82.9370   63.9860 C.3   216  MET216      0.0595
     78  SD       -18.2850   83.5470   62.4580 S.3   216  MET216     -0.1393
     79  CE       -16.9110   84.3890   61.6680 C.3   216  MET216      0.0692
     80  N        -10.3880   80.4950   60.7040 N.3   223  LEU223     -0.1245
     81  CA       -10.4100   81.9100   61.0930 C.3   223  LEU223      0.1561
     82  C         -9.0440   82.3870   61.6090 C.2   223  LEU223      0.2260
     83  O         -8.5130   83.3930   61.1360 O.2   223  LEU223     -0.2867
     84  CB       -11.4860   82.1500   62.1630 C.3   223  LEU223      0.0270
     85  CG       -12.1140   83.5460   62.2980 C.3   223  LEU223      0.0019
     86  CD1      -13.2070   83.5050   63.3580 C.3   223  LEU223      0.0001
     87  CD2      -11.0630   84.5780   62.6580 C.3   223  LEU223      0.0001
     88  N         -6.0600   82.2450   59.0080 N.3   226  ARG226     -0.1231
     89  CA        -6.1980   83.3920   58.1160 C.3   226  ARG226      0.1694
     90  C         -5.6480   84.6790   58.7200 C.2   226  ARG226      0.2591
     91  O         -4.8850   85.4000   58.0700 O.2   226  ARG226     -0.2718
     92  CB        -7.6660   83.6010   57.7430 C.3   226  ARG226      0.0321
     93  CG        -7.8820   84.6970   56.7080 C.3   226  ARG226      0.0489
     94  CD        -9.3630   84.9660   56.5120 C.3   226  ARG226      0.2205
     95  NE        -9.9400   85.7190   57.6220 N.pl3 226  ARG226     -0.0865
     96  CZ       -11.1430   85.4920   58.1360 C.cat 226  ARG226      0.5346
     97  NH1      -11.9000   84.5270   57.6400 N.pl3 226  ARG226      0.1354
     98  NH2      -11.5840   86.2300   59.1430 N.pl3 226  ARG226      0.1354
     99  N         -6.0470   84.9710   59.9570 N.am  227  LYS227     -0.1980
    100  CA        -5.5840   86.1780   60.6390 C.3   227  LYS227      0.1596
    101  C         -4.0780   86.1730   60.8580 C.2   227  LYS227      0.2287
    102  O         -3.4240   87.2110   60.7130 O.2   227  LYS227     -0.2864
    103  CB        -6.3310   86.3720   61.9630 C.3   227  LYS227      0.0298
    104  CG        -7.5560   87.2830   61.8090 C.3   227  LYS227      0.0038
    105  CD        -8.6070   87.0940   62.8970 C.3   227  LYS227      0.0206
    106  CE        -9.8220   87.9670   62.6100 C.3   227  LYS227      0.1093
    107  NZ       -10.9750   87.6820   63.5140 N.3   227  LYS227     -0.1314
    108  N          0.9230   91.4090   56.3540 N.3   234  VAL234     -0.1245
    109  CA         0.9160   92.8520   56.5640 C.3   234  VAL234      0.1561
    110  C          2.3100   93.2900   57.0080 C.2   234  VAL234      0.2260
    111  O          2.8060   94.3340   56.5910 O.2   234  VAL234     -0.2867
    112  CB        -0.1140   93.2750   57.6450 C.3   234  VAL234      0.0252
    113  CG1       -0.1780   94.7920   57.7380 C.3   234  VAL234      0.0019
    114  CG2       -1.4800   92.7090   57.3110 C.3   234  VAL234      0.0019
@<TRIPOS>BOND
     1    39    38    2
     2    47    46    1
     3    48    46    1
     4    38    40   am
     5    38    37    1
     6   108   109    1
     7    46    45    1
     8    94    93    1
     9    94    95    1
    10   109   110    1
    11   109   112    1
    12   111   110    2
    13    93    92    1
    14    45    42    1
    15    37    36    1
    16   114   112    1
    17    36    33    1
    18    95    96    2
    19    97    96    1
    20   112   113    1
    21    42    41    1
    22    42    43    1
    23    92    89    1
    24    41    34   am
    25    91    90    2
    26    89    90    1
    27    89    88    1
    28    96    98    1
    29    32    33    1
    30    34    33    1
    31    34    35    2
    32    90    99   am
    33    43    44    2
    34    43    49   am
    35    57    55   ar
    36    57    59   ar
    37    71    70    2
    38    70    69    1
    39    99   100    1
    40    49    50    1
    41    55    54   ar
    42    59    58   ar
    43    69    68    1
    44   100   101    1
    45   100   103    1
    46    80    81    1
    47   102   101    2
    48    81    82    1
    49    81    84    1
    50    83    82    2
    51    68    62   am
    52    54    53    1
    53    54    56   ar
    54    50    53    1
    55    50    51    1
    56    79    78    1
    57    58    56   ar
    58   104   103    1
    59   104   105    1
    60    60    51   am
    61    60    61    1
    62    84    85    1
    63    62    61    1
    64    62    63    2
    65    75    74    2
    66    85    87    1
    67    85    86    1
    68    51    52    2
    69    78    77    1
    70   106   105    1
    71   106   107    1
    72    61    64    1
    73    64    65    1
    74    67    65   am
    75    74    73    1
    76    29    26    1
    77    29    30    1
    78    73    72    1
    79    73    76    1
    80    65    66    2
    81    77    76    1
    82    26    25    1
    83    26    27    1
    84    28    27    2
    85    30    31    1
    86    25    31    1
    87    25    23   am
    88    23    24    2
    89    23    22    1
    90    21    22    1
    91    21    14   am
    92     4     3    2
    93     9     7   ar
    94     9    11   ar
    95     7     6   ar
    96    19    18   ar
    97    13    14    1
    98    13    16    1
    99    13    12    1
   100    14    15    2
   101    17    18    1
   102    17    16    1
   103    18    20   ar
   104    11    10   ar
   105     6     5    1
   106     6     8   ar
   107     3    12   am
   108     3     2    1
   109     5     2    1
   110     8    10   ar
   111     2     1    1
