@<TRIPOS>MOLECULE
tmp/2qjpB01.pdb
 219 209 0 0 0
SMALL
GASTEIGER

@<TRIPOS>ATOM
      1  N        -24.0900   72.2060   73.0120 N.3    31  VAL31      -0.1245
      2  CA       -25.4130   72.7940   72.8260 C.3    31  VAL31       0.1561
      3  C        -25.9580   72.3030   71.4960 C.2    31  VAL31       0.2260
      4  O        -27.0800   71.7960   71.4090 O.2    31  VAL31      -0.2867
      5  CB       -25.3560   74.3380   72.7840 C.3    31  VAL31       0.0252
      6  CG1      -26.7700   74.9010   72.7190 C.3    31  VAL31       0.0019
      7  CG2      -24.6180   74.8610   73.9980 C.3    31  VAL31       0.0019
      8  N        -29.1420   69.8870   71.4790 N.3    35  VAL35      -0.1231
      9  CA       -30.3120   70.7050   71.1610 C.3    35  VAL35       0.1692
     10  C        -30.6690   70.8200   69.6770 C.2    35  VAL35       0.2592
     11  O        -31.6300   70.2110   69.1990 O.2    35  VAL35      -0.2718
     12  CB       -30.1390   72.1450   71.7080 C.3    35  VAL35       0.0266
     13  CG1      -31.4720   72.8810   71.6740 C.3    35  VAL35       0.0020
     14  CG2      -29.5710   72.1080   73.1120 C.3    35  VAL35       0.0020
     15  N        -29.8800   71.6230   68.9680 N.am   36  CYS36      -0.1970
     16  CA       -30.0650   71.8980   67.5440 C.3    36  CYS36       0.1712
     17  C        -30.0850   70.6820   66.6230 C.2    36  CYS36       0.2296
     18  O        -31.0180   70.5050   65.8380 O.2    36  CYS36      -0.2864
     19  CB       -28.9690   72.8460   67.0640 C.3    36  CYS36       0.0983
     20  SG       -28.6050   74.1890   68.1970 S.3    36  CYS36      -0.0798
     21  N        -31.1290   68.0420   66.6110 N.3    38  ALA38      -0.1231
     22  CA       -32.3950   67.3240   66.5180 C.3    38  ALA38       0.1694
     23  C        -33.1280   67.6840   65.2230 C.2    38  ALA38       0.2592
     24  O        -33.8530   66.8640   64.6590 O.2    38  ALA38      -0.2718
     25  CB       -33.2730   67.6540   67.7280 C.3    38  ALA38       0.0304
     26  N        -32.9270   68.9120   64.7540 N.am   39  CYS39      -0.1956
     27  CA       -33.5690   69.3800   63.5290 C.3    39  CYS39       0.1843
     28  C        -32.5460   69.8390   62.4790 C.2    39  CYS39       0.2625
     29  O        -32.7170   69.5920   61.2850 O.2    39  CYS39      -0.2714
     30  CB       -34.5130   70.5510   63.8290 C.3    39  CYS39       0.0997
     31  SG       -35.7970   70.2870   65.0900 S.3    39  CYS39      -0.0797
     32  N        -31.4910   70.5130   62.9300 N.am   40  HIS40      -0.1973
     33  CA       -30.4540   71.0310   62.0340 C.3    40  HIS40       0.1656
     34  C        -29.2740   70.0850   61.8030 C.2    40  HIS40       0.2291
     35  O        -28.9200   69.2760   62.6670 O.2    40  HIS40      -0.2864
     36  CB       -29.8910   72.3480   62.5770 C.3    40  HIS40       0.0771
     37  CG       -30.8760   73.4800   62.6100 C.ar   40  HIS40       0.0820
     38  ND1      -31.4890   73.9770   61.4780 N.ar   40  HIS40      -0.2267
     39  CD2      -31.3200   74.2380   63.6420 C.ar   40  HIS40       0.1154
     40  CE1      -32.2630   74.9940   61.8140 C.ar   40  HIS40       0.1986
     41  NE2      -32.1790   75.1740   63.1220 N.ar   40  HIS40      -0.2212
     42  N        -34.8950   67.7450   60.1770 N.3    94  LEU94      -0.1245
     43  CA       -36.1330   68.4670   59.9180 C.3    94  LEU94       0.1561
     44  C        -36.0450   69.1880   58.5740 C.2    94  LEU94       0.2260
     45  O        -35.3150   70.1650   58.4300 O.2    94  LEU94      -0.2867
     46  CB       -36.3860   69.4740   61.0420 C.3    94  LEU94       0.0270
     47  CG       -37.7410   70.1820   61.0910 C.3    94  LEU94       0.0019
     48  CD1      -38.8540   69.1490   61.1460 C.3    94  LEU94       0.0001
     49  CD2      -37.7940   71.0820   62.3120 C.3    94  LEU94       0.0001
     50  N        -37.3360   71.5190   56.8110 N.3    96  ASN96      -0.1225
     51  CA       -37.2250   72.9670   56.6880 C.3    96  ASN96       0.1785
     52  C        -36.2610   73.6440   57.6490 C.2    96  ASN96       0.2597
     53  O        -36.2520   74.8700   57.7560 O.2    96  ASN96      -0.2718
     54  CB       -38.6100   73.6040   56.8070 C.3    96  ASN96       0.1169
     55  CG       -39.2940   73.2660   58.1110 C.2    96  ASN96       0.2627
     56  OD1      -39.3100   72.1080   58.5370 O.2    96  ASN96      -0.2716
     57  ND2      -39.8750   74.2770   58.7510 N.am   96  ASN96      -0.0877
     58  N        -35.4570   72.8530   58.3480 N.am   97  ALA97      -0.1966
     59  CA       -34.4730   73.4090   59.2580 C.3    97  ALA97       0.1713
     60  C        -33.2540   73.6360   58.3710 C.2    97  ALA97       0.2458
     61  O        -32.6810   72.6860   57.8410 O.2    97  ALA97      -0.2730
     62  CB       -34.1490   72.4220   60.3670 C.3    97  ALA97       0.0333
     63  N        -32.8630   74.8990   58.1690 N.am   98  PRO98      -0.2727
     64  CA       -31.6990   75.1430   57.3190 C.3    98  PRO98       0.1402
     65  C        -30.4200   74.5190   57.8530 C.2    98  PRO98       0.2269
     66  O        -30.3030   74.2190   59.0430 O.2    98  PRO98      -0.2865
     67  CB       -31.6270   76.6710   57.2600 C.3    98  PRO98       0.0296
     68  CG       -32.1700   77.0850   58.5790 C.3    98  PRO98       0.0237
     69  CD       -33.3730   76.1630   58.7280 C.3    98  PRO98       0.0939
     70  N        -26.8240   74.4640   59.2160 N.3   100  LEU100     -0.1245
     71  CA       -26.0980   75.4320   60.0220 C.3   100  LEU100      0.1561
     72  C        -24.6010   75.5250   59.7350 C.2   100  LEU100      0.2260
     73  O        -23.8980   76.3380   60.3380 O.2   100  LEU100     -0.2867
     74  CB       -26.3290   75.1380   61.5040 C.3   100  LEU100      0.0270
     75  CG       -27.7960   75.1780   61.9380 C.3   100  LEU100      0.0019
     76  CD1      -27.8980   74.8730   63.4210 C.3   100  LEU100      0.0001
     77  CD2      -28.3910   76.5500   61.6340 C.3   100  LEU100      0.0001
     78  N        -24.2600   79.0980   58.1600 N.3   103  MET103     -0.1245
     79  CA       -25.1930   80.1060   58.6660 C.3   103  MET103      0.1570
     80  C        -24.5790   81.3940   59.2120 C.2   103  MET103      0.2261
     81  O        -25.0810   82.4820   58.9430 O.2   103  MET103     -0.2867
     82  CB       -26.0990   79.4910   59.7360 C.3   103  MET103      0.0387
     83  CG       -27.1950   80.4230   60.2230 C.3   103  MET103      0.0595
     84  SD       -28.3190   80.8670   58.8950 S.3   103  MET103     -0.1393
     85  CE       -29.4370   79.4610   58.9810 C.3   103  MET103      0.0692
     86  N        -25.3770   85.4070   56.9360 N.3   107  ARG107     -0.1245
     87  CA       -26.2800   86.3220   57.6160 C.3   107  ARG107      0.1563
     88  C        -25.5190   87.5700   58.0270 C.2   107  ARG107      0.2260
     89  O        -24.3550   87.4990   58.4040 O.2   107  ARG107     -0.2867
     90  CB       -26.9050   85.6510   58.8430 C.3   107  ARG107      0.0307
     91  CG       -27.7760   84.4120   58.5690 C.3   107  ARG107      0.0489
     92  CD       -29.0420   84.7500   57.8080 C.3   107  ARG107      0.2205
     93  NE       -29.9910   83.6270   57.7290 N.pl3 107  ARG107     -0.0865
     94  CZ       -30.0640   82.7390   56.7360 C.cat 107  ARG107      0.5346
     95  NH1      -29.2460   82.8070   55.6950 N.pl3 107  ARG107      0.1354
     96  NH2      -30.9670   81.7640   56.7910 N.pl3 107  ARG107      0.1354
     97  N        -26.2330   87.7780   64.9260 N.3   130  TYR130     -0.1227
     98  CA       -27.5430   87.5460   64.3570 C.3   130  TYR130      0.1736
     99  C        -28.1140   86.2650   64.9370 C.2   130  TYR130      0.2595
    100  O        -29.2140   86.2660   65.4920 O.2   130  TYR130     -0.2718
    101  CB       -27.4700   87.4060   62.8420 C.3   130  TYR130      0.0548
    102  CG       -28.8160   87.0120   62.2830 C.ar  130  TYR130     -0.0200
    103  CD1      -29.8730   87.9230   62.2730 C.ar  130  TYR130     -0.0009
    104  CD2      -29.0780   85.6960   61.8930 C.ar  130  TYR130     -0.0009
    105  CE1      -31.1510   87.5390   61.9050 C.ar  130  TYR130      0.0417
    106  CE2      -30.3610   85.2990   61.5240 C.ar  130  TYR130      0.0417
    107  CZ       -31.3920   86.2240   61.5370 C.ar  130  TYR130      0.1957
    108  OH       -32.6720   85.8350   61.2160 O.3   130  TYR130     -0.2866
    109  N        -27.3640   85.1730   64.8040 N.am  131  ILE131     -0.1980
    110  CA       -27.8020   83.8830   65.3210 C.3   131  ILE131      0.1595
    111  C        -28.1190   84.0010   66.8020 C.2   131  ILE131      0.2287
    112  O        -29.1270   83.4700   67.2740 O.2   131  ILE131     -0.2864
    113  CB       -26.7210   82.7990   65.1280 C.3   131  ILE131      0.0276
    114  CG1      -26.3120   82.7380   63.6560 C.3   131  ILE131      0.0022
    115  CG2      -27.2540   81.4440   65.5930 C.3   131  ILE131      0.0022
    116  CD1      -25.4820   81.5270   63.2880 C.3   131  ILE131      0.0001
    117  N        -31.4360   85.6090   67.5080 N.3   134  VAL134     -0.1231
    118  CA       -32.6020   84.8070   67.1480 C.3   134  VAL134      0.1692
    119  C        -32.9380   83.8290   68.2650 C.2   134  VAL134      0.2591
    120  O        -34.1080   83.5550   68.5270 O.2   134  VAL134     -0.2718
    121  CB       -32.3730   84.0180   65.8360 C.3   134  VAL134      0.0266
    122  CG1      -33.5450   83.0900   65.5800 C.3   134  VAL134      0.0020
    123  CG2      -32.2180   84.9800   64.6660 C.3   134  VAL134      0.0020
    124  N        -31.9080   83.3080   68.9210 N.am  135  LEU135     -0.1980
    125  CA       -32.1020   82.3730   70.0200 C.3   135  LEU135      0.1596
    126  C        -32.5890   83.1660   71.2230 C.2   135  LEU135      0.2287
    127  O        -33.3500   82.6670   72.0550 O.2   135  LEU135     -0.2864
    128  CB       -30.7880   81.6640   70.3420 C.3   135  LEU135      0.0297
    129  CG       -30.2690   80.7920   69.1980 C.3   135  LEU135      0.0022
    130  CD1      -28.8470   80.3450   69.4740 C.3   135  LEU135      0.0001
    131  CD2      -31.1980   79.5960   69.0290 C.3   135  LEU135      0.0001
    132  N        -46.1890   78.8560   63.8680 N.3   154  PHE154     -0.1241
    133  CA       -45.0810   79.8090   63.9610 C.3   154  PHE154      0.1605
    134  C        -44.9420   80.4150   65.3490 C.2   154  PHE154      0.2264
    135  O        -45.7420   80.1380   66.2460 O.2   154  PHE154     -0.2867
    136  CB       -45.2420   80.9190   62.9150 C.3   154  PHE154      0.0534
    137  CG       -45.1110   80.4330   61.4940 C.ar  154  PHE154     -0.0203
    138  CD1      -45.9420   79.4240   61.0140 C.ar  154  PHE154     -0.0042
    139  CD2      -44.1380   80.9550   60.6470 C.ar  154  PHE154     -0.0042
    140  CE1      -45.8050   78.9380   59.7190 C.ar  154  PHE154     -0.0003
    141  CE2      -43.9940   80.4740   59.3450 C.ar  154  PHE154     -0.0003
    142  CZ       -44.8290   79.4640   58.8840 C.ar  154  PHE154     -0.0000
    143  N        -35.8700   88.0080   63.8120 N.3   160  PHE160     -0.1241
    144  CA       -36.2280   87.4890   62.4980 C.3   160  PHE160      0.1605
    145  C        -36.9030   88.5330   61.6090 C.2   160  PHE160      0.2264
    146  O        -37.9380   89.0890   61.9750 O.2   160  PHE160     -0.2867
    147  CB       -37.1380   86.2760   62.6920 C.3   160  PHE160      0.0534
    148  CG       -37.2570   85.4060   61.4880 C.ar  160  PHE160     -0.0203
    149  CD1      -36.1570   85.1630   60.6780 C.ar  160  PHE160     -0.0042
    150  CD2      -38.4650   84.7920   61.1850 C.ar  160  PHE160     -0.0042
    151  CE1      -36.2600   84.3170   59.5820 C.ar  160  PHE160     -0.0003
    152  CE2      -38.5790   83.9430   60.0930 C.ar  160  PHE160     -0.0003
    153  CZ       -37.4780   83.7050   59.2900 C.ar  160  PHE160     -0.0000
    154  N        -37.5160   87.8500   58.1750 N.3   162  ASN162     -0.1240
    155  CA       -38.0310   87.2040   56.9780 C.3   162  ASN162      0.1653
    156  C        -39.2150   86.2800   57.2010 C.2   162  ASN162      0.2266
    157  O        -39.4470   85.3560   56.4230 O.2   162  ASN162     -0.2867
    158  CB       -36.8910   86.4590   56.2810 C.3   162  ASN162      0.1155
    159  CG       -35.9140   87.4090   55.6100 C.2   162  ASN162      0.2627
    160  OD1      -36.1450   87.8520   54.4850 O.2   162  ASN162     -0.2716
    161  ND2      -34.8370   87.7500   56.3090 N.am  162  ASN162     -0.0877
    162  N        -41.3450   83.0780   62.8130 N.3   183  ILE183     -0.1231
    163  CA       -40.4060   82.0640   62.3560 C.3   183  ILE183      0.1692
    164  C        -41.0090   80.6770   62.6160 C.2   183  ILE183      0.2592
    165  O        -41.8190   80.5130   63.5260 O.2   183  ILE183     -0.2718
    166  CB       -39.0590   82.2870   63.1080 C.3   183  ILE183      0.0266
    167  CG1      -37.9430   81.4200   62.5310 C.3   183  ILE183      0.0019
    168  CG2      -39.2570   82.0670   64.5900 C.3   183  ILE183      0.0020
    169  CD1      -36.5490   81.8990   62.9590 C.3   183  ILE183      0.0001
    170  N        -40.6470   79.6880   61.8010 N.am  184  ALA184     -0.1966
    171  CA       -41.1780   78.3360   61.9690 C.3   184  ALA184      0.1728
    172  C        -40.3990   77.5410   63.0090 C.2   184  ALA184      0.2616
    173  O        -40.6990   76.3730   63.2640 O.2   184  ALA184     -0.2715
    174  CB       -41.1720   77.5930   60.6340 C.3   184  ALA184      0.0334
    175  N        -39.3890   78.1670   63.6020 N.am  185  MET185     -0.1964
    176  CA       -38.5970   77.4920   64.6170 C.3   185  MET185      0.1722
    177  C        -39.1110   77.7620   66.0160 C.2   185  MET185      0.2458
    178  O        -39.0240   78.8860   66.5140 O.2   185  MET185     -0.2730
    179  CB       -37.1310   77.9160   64.5620 C.3   185  MET185      0.0427
    180  CG       -36.3320   77.4070   65.7610 C.3   185  MET185      0.0599
    181  SD       -34.5510   77.5100   65.5740 S.3   185  MET185     -0.1393
    182  CE       -34.3030   79.2860   65.6660 C.3   185  MET185      0.0692
    183  N        -39.6650   76.7350   66.6720 N.am  186  PRO186     -0.2727
    184  CA       -40.1650   76.9460   68.0310 C.3   186  PRO186      0.1402
    185  C        -38.9700   77.3070   68.9070 C.2   186  PRO186      0.2269
    186  O        -37.8410   76.9180   68.6050 O.2   186  PRO186     -0.2865
    187  CB       -40.7720   75.5890   68.3900 C.3   186  PRO186      0.0296
    188  CG       -39.9900   74.6210   67.5270 C.3   186  PRO186      0.0237
    189  CD       -39.9050   75.3530   66.2250 C.3   186  PRO186      0.0939
    190  N        -35.9480   77.2480   71.0210 N.3   188  PRO188     -0.2102
    191  CA       -35.1460   76.0620   71.3120 C.3   188  PRO188      0.1504
    192  C        -34.4340   76.0290   72.6620 C.2   188  PRO188      0.2575
    193  O        -34.2140   74.9550   73.2170 O.2   188  PRO188     -0.2718
    194  CB       -34.1640   76.0370   70.1510 C.3   188  PRO188      0.0282
    195  CG       -33.8570   77.4920   69.9720 C.3   188  PRO188      0.0208
    196  CD       -35.1860   78.2140   70.2090 C.3   188  PRO188      0.0893
    197  N        -34.0760   77.1930   73.1910 N.am  189  LEU189     -0.1980
    198  CA       -33.3490   77.2550   74.4580 C.3   189  LEU189      0.1596
    199  C        -34.1280   77.5380   75.7390 C.2   189  LEU189      0.2287
    200  O        -34.6900   78.6180   75.9200 O.2   189  LEU189     -0.2864
    201  CB       -32.2090   78.2700   74.3430 C.3   189  LEU189      0.0297
    202  CG       -31.1140   77.9470   73.3220 C.3   189  LEU189      0.0022
    203  CD1      -30.0430   79.0230   73.3710 C.3   189  LEU189      0.0001
    204  CD2      -30.5130   76.5900   73.6240 C.3   189  LEU189      0.0001
    205  N        -23.1790   78.4140   71.5740 N.3   211  VAL211     -0.1245
    206  CA       -23.5330   77.7640   70.3140 C.3   211  VAL211      0.1561
    207  C        -23.2810   78.6790   69.1170 C.2   211  VAL211      0.2260
    208  O        -22.9960   78.2090   68.0200 O.2   211  VAL211     -0.2867
    209  CB       -25.0170   77.3270   70.2860 C.3   211  VAL211      0.0252
    210  CG1      -25.9220   78.5410   70.1420 C.3   211  VAL211      0.0019
    211  CG2      -25.2360   76.3390   69.1430 C.3   211  VAL211      0.0019
    212  N        -20.8580   77.8000   65.9760 N.3   215  LEU215     -0.1245
    213  CA       -21.2730   77.9630   64.5950 C.3   215  LEU215      0.1561
    214  C        -20.3730   78.9210   63.8260 C.2   215  LEU215      0.2260
    215  O        -20.2050   78.7730   62.6150 O.2   215  LEU215     -0.2867
    216  CB       -22.7280   78.4250   64.5350 C.3   215  LEU215      0.0270
    217  CG       -23.7230   77.3920   65.0720 C.3   215  LEU215      0.0019
    218  CD1      -25.1430   77.9500   65.0230 C.3   215  LEU215      0.0001
    219  CD2      -23.6140   76.1200   64.2470 C.3   215  LEU215      0.0001
@<TRIPOS>BOND
     1   160   159    2
     2   159   158    1
     3   159   161   am
     4    95    94    1
     5   158   155    1
     6   157   156    2
     7    51    54    1
     8    51    50    1
     9    51    52    1
    10    94    96    1
    11    94    93    2
    12    54    55    1
    13    86    87    1
    14   155   156    1
    15   155   154    1
    16    67    64    1
    17    67    68    1
    18    64    65    1
    19    64    63    1
    20    87    88    1
    21    87    90    1
    22    52    53    2
    23    52    58   am
    24    93    92    1
    25    92    91    1
    26    61    60    2
    27    65    66    2
    28    88    89    2
    29    55    56    2
    30    55    57   am
    31    78    79    1
    32    63    60   am
    33    63    69    1
    34    58    59    1
    35    60    59    1
    36    45    44    2
    37    91    90    1
    38    44    43    1
    39    68    69    1
    40    79    80    1
    41    79    82    1
    42   142   141   ar
    43   142   140   ar
    44    84    85    1
    45    84    83    1
    46    81    80    2
    47    70    71    1
    48    59    62    1
    49   153   151   ar
    50   153   152   ar
    51   141   139   ar
    52   151   149   ar
    53   140   138   ar
    54    72    71    1
    55    72    73    2
    56    82    83    1
    57    43    42    1
    58    43    46    1
    59    71    74    1
    60   152   150   ar
    61   174   171    1
    62   139   137   ar
    63   149   148   ar
    64   138   137   ar
    65    46    47    1
    66    47    48    1
    67    47    49    1
    68   150   148   ar
    69   108   107    1
    70    29    28    2
    71    38    40   ar
    72    38    37   ar
    73   148   147    1
    74   137   136    1
    75    74    75    1
    76   106   107   ar
    77   106   104   ar
    78   107   105   ar
    79   145   146    2
    80   145   144    1
    81    77    75    1
    82   170   171    1
    83   170   164   am
    84    34    33    1
    85    34    35    2
    86    40    41   ar
    87   104   102   ar
    88   105   103   ar
    89    75    76    1
    90   171   172    1
    91    33    36    1
    92    33    32    1
    93   103   102   ar
    94   102   101    1
    95   163   164    1
    96   163   162    1
    97   163   166    1
    98    28    32   am
    99    28    27    1
   100   144   147    1
   101   144   143    1
   102   167   169    1
   103   167   166    1
   104    36    37    1
   105    37    39   ar
   106   215   214    2
   107   164   165    2
   108   101    98    1
   109   136   133    1
   110   172   173    2
   111   172   175   am
   112   166   168    1
   113    41    39   ar
   114   116   114    1
   115    27    30    1
   116    27    26    1
   117   175   176    1
   118   114   113    1
   119   214   213    1
   120    30    31    1
   121   132   133    1
   122   133   134    1
   123   219   217    1
   124    98    97    1
   125    98    99    1
   126   216   213    1
   127   216   217    1
   128   179   176    1
   129   179   180    1
   130   213   212    1
   131   176   177    1
   132    24    23    2
   133   123   121    1
   134    26    23   am
   135   109    99   am
   136   109   110    1
   137    99   100    2
   138   218   217    1
   139   113   110    1
   140   113   115    1
   141    23    22    1
   142   110   111    1
   143   134   135    2
   144   181   182    1
   145   181   180    1
   146   122   121    1
   147   121   118    1
   148    18    17    2
   149   177   178    2
   150   177   183   am
   151   189   183    1
   152   189   188    1
   153    22    21    1
   154    22    25    1
   155    17    16    1
   156   183   184    1
   157   111   112    2
   158    19    16    1
   159    19    20    1
   160   118   117    1
   161   118   119    1
   162   188   187    1
   163    16    15    1
   164   208   207    2
   165   184   187    1
   166   184   185    1
   167   119   120    2
   168   119   124   am
   169   186   185    2
   170   124   125    1
   171    15    10   am
   172   131   129    1
   173   207   206    1
   174   211   209    1
   175   129   130    1
   176   129   128    1
   177    11    10    2
   178    10     9    1
   179   195   194    1
   180   195   196    1
   181   125   128    1
   182   125   126    1
   183   210   209    1
   184   194   191    1
   185   196   190    1
   186   209   206    1
   187   206   205    1
   188   190   191    1
   189     9     8    1
   190     9    12    1
   191   126   127    2
   192   191   192    1
   193     4     3    2
   194     3     2    1
   195    13    12    1
   196    12    14    1
   197   192   197   am
   198   192   193    2
   199     6     5    1
   200     5     2    1
   201     5     7    1
   202     2     1    1
   203   197   198    1
   204   202   203    1
   205   202   204    1
   206   202   201    1
   207   201   198    1
   208   198   199    1
   209   199   200    2
