@<TRIPOS>MOLECULE
tmp/2qjrB04.pdb
 197 193 0 0 0
SMALL
GASTEIGER

@<TRIPOS>ATOM
      1  N          8.8050   -0.8060   72.0620 N.3    87  ARG87      -0.1245
      2  CA         7.8370   -0.3540   73.0830 C.3    87  ARG87       0.1563
      3  C          8.4450   -0.5050   74.4790 C.2    87  ARG87       0.2260
      4  O          8.2760    0.3320   75.3210 O.2    87  ARG87      -0.2867
      5  CB         6.5200   -1.1220   73.0340 C.3    87  ARG87       0.0307
      6  CG         5.4230   -0.4560   73.9340 C.3    87  ARG87       0.0489
      7  CD         4.1840   -1.2780   74.1450 C.3    87  ARG87       0.2205
      8  NE         3.4670   -1.6590   72.8910 N.pl3  87  ARG87      -0.0865
      9  CZ         2.5130   -0.9170   72.3040 C.cat  87  ARG87       0.5346
     10  NH1        2.1190    0.2010   72.8860 N.pl3  87  ARG87       0.1354
     11  NH2        1.9140   -1.3420   71.1740 N.pl3  87  ARG87       0.1354
     12  N          6.6500   -7.3960   71.9860 N.3   167  GLU167     -0.1231
     13  CA         5.4090   -6.7450   71.7360 C.3   167  GLU167      0.1699
     14  C          4.1540   -7.5940   72.0650 C.2   167  GLU167      0.2592
     15  O          3.2140   -7.0970   72.5730 O.2   167  GLU167     -0.2718
     16  CB         5.3600   -6.3660   70.2580 C.3   167  GLU167      0.0402
     17  CG         4.0590   -5.7490   69.8770 C.3   167  GLU167      0.1161
     18  CD         3.7670   -4.3610   70.5240 C.2   167  GLU167      0.3649
     19  OE1        4.6940   -3.6590   71.0590 O.co2 167  GLU167     -0.2457
     20  OE2        2.5620   -3.9640   70.4360 O.co2 167  GLU167     -0.2457
     21  N          4.1310   -8.8510   71.7070 N.am  168  GLU168     -0.1966
     22  CA         2.9300   -9.6550   71.7620 C.3   168  GLU168      0.1733
     23  C          2.8420  -10.7400   72.8590 C.2   168  GLU168      0.2616
     24  O          1.7790  -11.3240   72.9770 O.2   168  GLU168     -0.2715
     25  CB         2.7770  -10.5330   70.5090 C.3   168  GLU168      0.0429
     26  CG         2.7540   -9.8110   69.2100 C.3   168  GLU168      0.1163
     27  CD         1.7720   -8.6580   69.1970 C.2   168  GLU168      0.3649
     28  OE1        0.9870   -8.4800   70.1380 O.co2 168  GLU168     -0.2457
     29  OE2        1.7610   -7.9650   68.1740 O.co2 168  GLU168     -0.2457
     30  N          3.9430  -11.1370   73.5030 N.am  169  VAL169     -0.1977
     31  CA         3.8740  -12.2730   74.4230 C.3   169  VAL169      0.1596
     32  C          4.1780  -11.6980   75.8300 C.2   169  VAL169      0.2287
     33  O          3.2680  -11.6880   76.7340 O.2   169  VAL169     -0.2864
     34  CB         4.7230  -13.4830   73.9220 C.3   169  VAL169      0.0276
     35  CG1        4.5550  -14.8060   74.7410 C.3   169  VAL169      0.0022
     36  CG2        4.4290  -13.7670   72.4750 C.3   169  VAL169      0.0022
     37  N          5.3520   -8.5240   76.7040 N.3   171  SER171     -0.1217
     38  CA         5.2890   -7.0910   76.9750 C.3   171  SER171      0.1889
     39  C          6.4370   -6.6190   77.8110 C.2   171  SER171      0.2288
     40  O          6.2220   -5.8780   78.7550 O.2   171  SER171     -0.2866
     41  CB         4.0360   -6.8280   77.7780 C.3   171  SER171      0.2089
     42  OG         2.9400   -7.1730   76.9780 O.3   171  SER171     -0.2183
     43  N         -5.3890  -11.8200   76.1620 N.3   319  PHE319     -0.1227
     44  CA        -4.2960  -11.7360   75.1680 C.3   319  PHE319      0.1736
     45  C         -3.3050  -12.9110   75.2460 C.2   319  PHE319      0.2595
     46  O         -2.6170  -13.2520   74.2900 O.2   319  PHE319     -0.2718
     47  CB        -3.5770  -10.4270   75.3430 C.3   319  PHE319      0.0547
     48  CG        -4.4410   -9.2390   75.0120 C.ar  319  PHE319     -0.0202
     49  CD1       -4.4200   -8.6450   73.7600 C.ar  319  PHE319     -0.0042
     50  CD2       -5.2430   -8.7030   75.9770 C.ar  319  PHE319     -0.0042
     51  CE1       -5.2670   -7.4760   73.4980 C.ar  319  PHE319     -0.0003
     52  CE2       -6.0640   -7.6280   75.7480 C.ar  319  PHE319     -0.0003
     53  CZ        -6.0950   -7.0180   74.5230 C.ar  319  PHE319     -0.0000
     54  N         -3.2120  -13.5550   76.3960 N.am  320  ARG320     -0.1966
     55  CA        -2.5300  -14.8650   76.4830 C.3   320  ARG320      0.1714
     56  C         -3.0320  -15.4110   77.7670 C.2   320  ARG320      0.2458
     57  O         -3.6900  -14.6520   78.5560 O.2   320  ARG320     -0.2730
     58  CB        -1.0040  -14.6860   76.5900 C.3   320  ARG320      0.0347
     59  CG        -0.6110  -13.8100   77.7550 C.3   320  ARG320      0.0492
     60  CD         0.7140  -13.1970   77.6300 C.3   320  ARG320      0.2205
     61  NE         1.7820  -13.7080   78.5110 N.pl3 320  ARG320     -0.0865
     62  CZ         2.4690  -12.9260   79.3780 C.cat 320  ARG320      0.5346
     63  NH1        2.1760  -11.6440   79.5240 N.pl3 320  ARG320      0.1354
     64  NH2        3.4080  -13.4660   80.1310 N.pl3 320  ARG320      0.1354
     65  N         -2.6760  -16.6720   78.0140 N.am  321  PRO321     -0.2716
     66  CA        -3.0770  -17.3430   79.2270 C.3   321  PRO321      0.1536
     67  C         -2.6510  -16.6480   80.4640 C.2   321  PRO321      0.2599
     68  O         -1.5310  -16.1660   80.5810 O.2   321  PRO321     -0.2715
     69  CB        -2.4540  -18.7400   79.1170 C.3   321  PRO321      0.0310
     70  CG        -2.0240  -18.9310   77.6360 C.3   321  PRO321      0.0237
     71  CD        -1.9500  -17.5580   77.0770 C.3   321  PRO321      0.0939
     72  N         -3.6000  -16.5020   81.3780 N.am  322  SER322     -0.1936
     73  CA        -3.3080  -15.8390   82.6610 C.3   322  SER322      0.2055
     74  C         -2.3050  -16.6200   83.4630 C.2   322  SER322      0.2642
     75  O         -2.1880  -17.8780   83.4030 O.2   322  SER322     -0.2714
     76  CB        -4.6140  -15.6550   83.4430 C.3   322  SER322      0.2130
     77  OG        -5.2190  -16.9970   83.3970 O.3   322  SER322     -0.2179
     78  N         -1.6450  -15.8890   84.2960 N.am  323  GLU323     -0.1976
     79  CA        -0.6340  -16.3890   85.1940 C.3   323  GLU323      0.1602
     80  C         -1.2300  -16.9660   86.4840 C.2   323  GLU323      0.2287
     81  O         -2.1360  -16.3470   87.0750 O.2   323  GLU323     -0.2864
     82  CB         0.2230  -15.1960   85.6340 C.3   323  GLU323      0.0415
     83  CG        -0.7130  -13.9740   85.6040 C.3   323  GLU323      0.1163
     84  CD        -0.5410  -13.0730   86.7380 C.2   323  GLU323      0.3649
     85  OE1       -1.5850  -12.4200   87.1320 O.co2 323  GLU323     -0.2457
     86  OE2        0.6430  -13.0830   87.2420 O.co2 323  GLU323     -0.2457
     87  N        -11.7020    2.2930   68.9280 N.3   509  TYR509     -0.1241
     88  CA       -10.6500    1.3450   68.9380 C.3   509  TYR509      0.1605
     89  C        -11.1480    0.0180   68.4270 C.2   509  TYR509      0.2264
     90  O        -10.8070   -0.4090   67.3330 O.2   509  TYR509     -0.2867
     91  CB       -10.0640    1.2720   70.3400 C.3   509  TYR509      0.0534
     92  CG        -8.7760    0.4620   70.2630 C.ar  509  TYR509     -0.0201
     93  CD1       -7.6900    0.9660   69.6160 C.ar  509  TYR509     -0.0009
     94  CD2       -8.6820   -0.7920   70.7610 C.ar  509  TYR509     -0.0009
     95  CE1       -6.5650    0.2410   69.4720 C.ar  509  TYR509      0.0417
     96  CE2       -7.5090   -1.5650   70.6150 C.ar  509  TYR509      0.0417
     97  CZ        -6.4510   -1.0300   69.9710 C.ar  509  TYR509      0.1957
     98  OH        -5.2170   -1.6570   69.7880 O.3   509  TYR509     -0.2866
     99  N         -4.4990    2.9400   65.1840 N.3   592  SER592     -0.1202
    100  CA        -3.9270    1.5990   65.2870 C.3   592  SER592      0.2020
    101  C         -5.0100    0.6820   64.8340 C.2   592  SER592      0.2618
    102  O         -5.4470    0.7880   63.6960 O.2   592  SER592     -0.2717
    103  CB        -3.4240    1.4170   66.7420 C.3   592  SER592      0.2103
    104  OG        -2.7290    0.2190   66.9160 O.3   592  SER592     -0.2182
    105  N         -5.5810   -0.0960   65.7370 N.am  593  TYR593     -0.1975
    106  CA        -6.6800   -0.9840   65.3890 C.3   593  TYR593      0.1639
    107  C         -7.8170   -0.1260   65.0790 C.2   593  TYR593      0.2290
    108  O         -8.6240   -0.4440   64.2590 O.2   593  TYR593     -0.2864
    109  CB        -7.0780   -1.9230   66.5570 C.3   593  TYR593      0.0560
    110  CG        -7.9660   -3.0490   66.0870 C.ar  593  TYR593     -0.0198
    111  CD1       -9.3070   -2.8760   65.8530 C.ar  593  TYR593     -0.0009
    112  CD2       -7.4540   -4.2740   65.8980 C.ar  593  TYR593     -0.0009
    113  CE1      -10.0890   -3.9450   65.3740 C.ar  593  TYR593      0.0417
    114  CE2       -8.1950   -5.3020   65.4410 C.ar  593  TYR593      0.0417
    115  CZ        -9.5100   -5.1290   65.1700 C.ar  593  TYR593      0.1957
    116  OH       -10.1740   -6.2240   64.7010 O.3   593  TYR593     -0.2866
    117  N         -3.9360   -0.5910   60.4960 N.3   618  VAL618     -0.1245
    118  CA        -3.8240   -1.8370   59.7130 C.3   618  VAL618      0.1561
    119  C         -4.7560   -1.7240   58.4910 C.2   618  VAL618      0.2260
    120  O         -5.8550   -1.1060   58.5650 O.2   618  VAL618     -0.2867
    121  CB        -4.0870   -3.0500   60.6010 C.3   618  VAL618      0.0252
    122  CG1       -4.3280   -4.4000   59.7490 C.3   618  VAL618      0.0019
    123  CG2       -2.9090   -3.2470   61.5860 C.3   618  VAL618      0.0019
    124  N         -4.5380   -7.8860   57.0430 N.3   621  TRP621     -0.1241
    125  CA        -4.0240   -8.6880   58.1660 C.3   621  TRP621      0.1605
    126  C         -2.7230   -9.4580   57.8530 C.2   621  TRP621      0.2264
    127  O         -1.8650   -9.5900   58.7390 O.2   621  TRP621     -0.2867
    128  CB        -5.1400   -9.5650   58.8750 C.3   621  TRP621      0.0550
    129  CG        -6.0580   -8.6600   59.6520 C.ar  621  TRP621      0.0003
    130  CD1       -7.3760   -8.3070   59.3240 C.ar  621  TRP621      0.0946
    131  CD2       -5.7020   -7.8280   60.8020 C.ar  621  TRP621      0.0152
    132  NE1       -7.8560   -7.4240   60.2720 N.ar  621  TRP621     -0.2442
    133  CE2       -6.8540   -7.0870   61.1580 C.ar  621  TRP621      0.0810
    134  CE3       -4.5470   -7.6920   61.5980 C.ar  621  TRP621      0.0012
    135  CZ2       -6.8680   -6.1660   62.2580 C.ar  621  TRP621      0.0191
    136  CZ3       -4.5580   -6.7930   62.6780 C.ar  621  TRP621      0.0001
    137  CH2       -5.7310   -6.0270   62.9850 C.ar  621  TRP621      0.0015
    138  N          0.3770   -7.6140   59.3200 N.3   624  TYR624     -0.1241
    139  CA         0.6230   -7.4110   60.7610 C.3   624  TYR624      0.1605
    140  C          1.3810   -8.6370   61.3050 C.2   624  TYR624      0.2264
    141  O          1.5680   -9.5350   60.5820 O.2   624  TYR624     -0.2867
    142  CB        -0.6870   -7.1150   61.4860 C.3   624  TYR624      0.0534
    143  CG        -0.4040   -6.5190   62.8460 C.ar  624  TYR624     -0.0201
    144  CD1        0.3470   -5.4160   62.9340 C.ar  624  TYR624     -0.0009
    145  CD2       -0.7670   -7.1620   64.0090 C.ar  624  TYR624     -0.0009
    146  CE1        0.7480   -4.8960   64.1290 C.ar  624  TYR624      0.0417
    147  CE2       -0.3920   -6.6380   65.2520 C.ar  624  TYR624      0.0417
    148  CZ         0.3980   -5.5010   65.2650 C.ar  624  TYR624      0.1957
    149  OH         0.8040   -4.9200   66.4050 O.3   624  TYR624     -0.2866
    150  N         -0.1200  -11.7980   67.1500 N.3   628  TYR628     -0.1241
    151  CA        -1.3790  -11.0950   67.3660 C.3   628  TYR628      0.1605
    152  C         -2.3850  -11.4910   66.3270 C.2   628  TYR628      0.2264
    153  O         -3.5020  -11.9180   66.6270 O.2   628  TYR628     -0.2867
    154  CB        -1.1280   -9.6010   67.3140 C.3   628  TYR628      0.0534
    155  CG        -2.3360   -8.7730   67.4830 C.ar  628  TYR628     -0.0201
    156  CD1       -3.1230   -8.4240   66.4010 C.ar  628  TYR628     -0.0009
    157  CD2       -2.7120   -8.3440   68.7360 C.ar  628  TYR628     -0.0009
    158  CE1       -4.2640   -7.6420   66.5850 C.ar  628  TYR628      0.0417
    159  CE2       -3.8600   -7.6100   68.9690 C.ar  628  TYR628      0.0417
    160  CZ        -4.6050   -7.2150   67.8800 C.ar  628  TYR628      0.1957
    161  OH        -5.7260   -6.4330   68.0890 O.3   628  TYR628     -0.2866
    162  N         -3.8220  -15.2650   66.3960 N.3   631  ARG631     -0.1245
    163  CA        -4.6150  -15.4930   67.5920 C.3   631  ARG631      0.1563
    164  C         -6.0690  -15.3560   67.2280 C.2   631  ARG631      0.2260
    165  O         -6.8600  -16.2170   67.6790 O.2   631  ARG631     -0.2867
    166  CB        -4.2320  -14.4910   68.6550 C.3   631  ARG631      0.0307
    167  CG        -4.8360  -14.5490   70.0290 C.3   631  ARG631      0.0489
    168  CD        -3.7300  -14.1930   71.1010 C.3   631  ARG631      0.2205
    169  NE        -3.6640  -12.8420   71.1250 N.pl3 631  ARG631     -0.0865
    170  CZ        -2.6620  -12.0940   71.3520 C.cat 631  ARG631      0.5346
    171  NH1       -1.4460  -12.5550   71.5720 N.pl3 631  ARG631      0.1354
    172  NH2       -2.9500  -10.7680   71.3520 N.pl3 631  ARG631      0.1354
    173  N          5.9140   -1.2300   64.0660 N.3   672  ASN672     -0.1225
    174  CA         4.8170   -2.0890   64.5320 C.3   672  ASN672      0.1785
    175  C          3.7860   -2.3850   63.4510 C.2   672  ASN672      0.2597
    176  O          3.5900   -3.5510   62.9610 O.2   672  ASN672     -0.2718
    177  CB         4.1630   -1.3510   65.6910 C.3   672  ASN672      0.1169
    178  CG         3.3200   -2.2290   66.5570 C.2   672  ASN672      0.2627
    179  OD1        2.7450   -3.2390   66.0840 O.2   672  ASN672     -0.2716
    180  ND2        3.3440   -1.9480   67.8710 N.am  672  ASN672     -0.0877
    181  N          3.0680   -1.3510   63.1450 N.am  673  VAL673     -0.1980
    182  CA         2.2160   -1.2820   61.9550 C.3   673  VAL673      0.1595
    183  C          3.0140   -0.5340   60.8670 C.2   673  VAL673      0.2287
    184  O          3.1150    0.6880   60.8270 O.2   673  VAL673     -0.2864
    185  CB         1.0280   -0.4420   62.2160 C.3   673  VAL673      0.0276
    186  CG1        0.1640   -0.4750   61.0130 C.3   673  VAL673      0.0022
    187  CG2        0.2570   -0.9370   63.3340 C.3   673  VAL673      0.0022
    188  N          4.8370    4.1870   65.9920 N.3   702  HIS702     -0.1241
    189  CA         3.4410    3.9400   66.1650 C.3   702  HIS702      0.1621
    190  C          2.7250    4.9170   67.0820 C.2   702  HIS702      0.2264
    191  O          1.5410    5.1230   66.9140 O.2   702  HIS702     -0.2867
    192  CB         3.2110    2.5730   66.6880 C.3   702  HIS702      0.0745
    193  CG         1.8220    2.0780   66.4680 C.ar  702  HIS702      0.0817
    194  ND1        1.2180    2.1060   65.2200 N.ar  702  HIS702     -0.2268
    195  CD2        0.9500    1.4720   67.3110 C.ar  702  HIS702      0.1154
    196  CE1        0.0130    1.5690   65.3240 C.ar  702  HIS702      0.1986
    197  NE2       -0.1540    1.1260   66.5670 N.ar  702  HIS702     -0.2212
@<TRIPOS>BOND
     1   124   125    1
     2   126   125    1
     3   126   127    2
     4   125   128    1
     5   119   120    2
     6   119   118    1
     7   128   129    1
     8   138   139    1
     9   130   129   ar
    10   130   132   ar
    11   129   131   ar
    12   118   117    1
    13   118   121    1
    14   122   121    1
    15   132   133   ar
    16   141   140    2
    17   121   123    1
    18   139   140    1
    19   139   142    1
    20   131   133   ar
    21   131   134   ar
    22   184   183    2
    23   183   182    1
    24   186   185    1
    25   133   135   ar
    26   142   143    1
    27   134   136   ar
    28   182   185    1
    29   182   181    1
    30   185   187    1
    31   135   137   ar
    32   136   137   ar
    33   143   144   ar
    34   143   145   ar
    35   144   146   ar
    36   176   175    2
    37   181   175   am
    38   175   174    1
    39   102   101    2
    40   145   147   ar
    41   173   174    1
    42   146   148   ar
    43   108   107    2
    44   174   177    1
    45   116   115    1
    46   101   100    1
    47   101   105   am
    48   107   106    1
    49   115   113   ar
    50   115   114   ar
    51    99   100    1
    52   194   196   ar
    53   194   193   ar
    54   147   148   ar
    55   148   149    1
    56   100   103    1
    57   196   197   ar
    58   113   111   ar
    59   106   105    1
    60   106   109    1
    61   114   112   ar
    62   177   178    1
    63   111   110   ar
    64   112   110   ar
    65   188   189    1
    66   179   178    2
    67   110   109    1
    68   189   192    1
    69   189   190    1
    70   152   153    2
    71   152   151    1
    72   162   163    1
    73   156   158   ar
    74   156   155   ar
    75   193   192    1
    76   193   195   ar
    77   178   180   am
    78   197   195   ar
    79   158   160   ar
    80   103   104    1
    81   191   190    2
    82   150   151    1
    83   164   163    1
    84   164   165    2
    85   154   151    1
    86   154   155    1
    87    90    89    2
    88   155   157   ar
    89   163   166    1
    90   160   161    1
    91   160   159   ar
    92    29    27   ar
    93    89    88    1
    94   166   167    1
    95   157   159   ar
    96    87    88    1
    97    88    91    1
    98    27    26    1
    99    27    28   ar
   100    26    25    1
   101    95    93   ar
   102    95    97   ar
   103    93    92   ar
   104    98    97    1
   105    17    16    1
   106    17    18    1
   107    97    96   ar
   108   167   168    1
   109    16    13    1
   110    92    91    1
   111    92    94   ar
   112    20    18   ar
   113    25    22    1
   114    18    19   ar
   115    96    94   ar
   116   168   169    1
   117   169   170    2
   118    11     9    1
   119   170   172    1
   120   170   171    1
   121    21    22    1
   122    21    14   am
   123    13    12    1
   124    13    14    1
   125    22    23    1
   126     1     2    1
   127    14    15    2
   128     9    10    1
   129     9     8    2
   130    36    34    1
   131    23    24    2
   132    23    30   am
   133     8     7    1
   134     5     2    1
   135     5     6    1
   136     2     3    1
   137    51    49   ar
   138    51    53   ar
   139    30    31    1
   140    49    48   ar
   141    34    31    1
   142    34    35    1
   143     6     7    1
   144    46    45    2
   145    31    32    1
   146     3     4    2
   147    53    52   ar
   148    48    47    1
   149    48    50   ar
   150    44    45    1
   151    44    47    1
   152    44    43    1
   153    45    54   am
   154    52    50   ar
   155    32    33    2
   156    54    55    1
   157    55    58    1
   158    55    56    1
   159    58    59    1
   160    37    38    1
   161    38    41    1
   162    38    39    1
   163    42    41    1
   164    71    70    1
   165    71    65    1
   166    60    59    1
   167    60    61    1
   168    70    69    1
   169    56    65   am
   170    56    57    2
   171    39    40    2
   172    65    66    1
   173    61    62    2
   174    69    66    1
   175    66    67    1
   176    62    63    1
   177    62    64    1
   178    67    68    2
   179    67    72   am
   180    72    73    1
   181    73    76    1
   182    73    74    1
   183    77    76    1
   184    75    74    2
   185    74    78   am
   186    78    79    1
   187    79    82    1
   188    79    80    1
   189    83    82    1
   190    83    84    1
   191    80    81    2
   192    84    85   ar
   193    84    86   ar
