@<TRIPOS>MOLECULE
tmp/2qjtA00.pdb
 146 141 0 0 0
SMALL
GASTEIGER

@<TRIPOS>ATOM
      1  N         40.7040   29.0210   20.9130 N.3   186  TYR186     -0.1241
      2  CA        39.3410   29.3050   20.5550 C.3   186  TYR186      0.1605
      3  C         38.3780   28.9810   21.7040 C.2   186  TYR186      0.2264
      4  O         37.5260   29.8100   22.0470 O.2   186  TYR186     -0.2867
      5  CB        38.9410   28.5460   19.2920 C.3   186  TYR186      0.0534
      6  CG        37.4560   28.4830   19.1590 C.ar  186  TYR186     -0.0201
      7  CD1       36.7280   29.5790   18.6740 C.ar  186  TYR186     -0.0009
      8  CD2       36.7600   27.3470   19.5570 C.ar  186  TYR186     -0.0009
      9  CE1       35.3620   29.5210   18.5680 C.ar  186  TYR186      0.0417
     10  CE2       35.4090   27.2810   19.4580 C.ar  186  TYR186      0.0417
     11  CZ        34.7130   28.3650   18.9610 C.ar  186  TYR186      0.1957
     12  OH        33.3480   28.2720   18.8860 O.3   186  TYR186     -0.2866
     13  N         36.1120   31.5420   23.8340 N.3   190  TYR190     -0.1241
     14  CA        34.6770   31.3470   23.7650 C.3   190  TYR190      0.1605
     15  C         34.0240   31.3300   25.1590 C.2   190  TYR190      0.2264
     16  O         33.0400   32.0110   25.3910 O.2   190  TYR190     -0.2867
     17  CB        34.3370   30.0750   22.9790 C.3   190  TYR190      0.0534
     18  CG        32.8740   30.0310   22.6150 C.ar  190  TYR190     -0.0201
     19  CD1       32.4040   30.7260   21.4900 C.ar  190  TYR190     -0.0009
     20  CD2       31.9510   29.3680   23.4290 C.ar  190  TYR190     -0.0009
     21  CE1       31.0830   30.7230   21.1570 C.ar  190  TYR190      0.0417
     22  CE2       30.6120   29.3590   23.1100 C.ar  190  TYR190      0.0417
     23  CZ        30.1760   30.0300   21.9600 C.ar  190  TYR190      0.1957
     24  OH        28.8430   30.0310   21.6110 O.3   190  TYR190     -0.2866
     25  N         31.5120   34.0710   28.3570 N.3   194  TRP194     -0.1241
     26  CA        30.3140   33.5390   29.0220 C.3   194  TRP194      0.1605
     27  C         30.3860   33.4320   30.5550 C.2   194  TRP194      0.2264
     28  O         29.3870   33.1070   31.2130 O.2   194  TRP194     -0.2867
     29  CB        29.9970   32.1630   28.4210 C.3   194  TRP194      0.0550
     30  CG        29.2910   32.2640   27.0910 C.ar  194  TRP194      0.0003
     31  CD1       29.8060   32.0160   25.8690 C.ar  194  TRP194      0.0946
     32  CD2       27.9310   32.6680   26.8820 C.ar  194  TRP194      0.0152
     33  NE1       28.8600   32.2330   24.8900 N.ar  194  TRP194     -0.2442
     34  CE2       27.6920   32.6240   25.4930 C.ar  194  TRP194      0.0810
     35  CE3       26.8900   33.0480   27.7370 C.ar  194  TRP194      0.0012
     36  CZ2       26.4440   32.9580   24.9360 C.ar  194  TRP194      0.0191
     37  CZ3       25.6580   33.3910   27.1820 C.ar  194  TRP194      0.0001
     38  CH2       25.4440   33.3380   25.8000 C.ar  194  TRP194      0.0015
     39  N         23.6760   25.6850   25.1370 N.3   203  PHE203     -0.1241
     40  CA        23.5870   26.1050   23.7490 C.3   203  PHE203      0.1605
     41  C         22.7290   25.1460   22.9370 C.2   203  PHE203      0.2264
     42  O         22.7900   23.9140   23.1150 O.2   203  PHE203     -0.2867
     43  CB        24.9840   26.1860   23.1260 C.3   203  PHE203      0.0534
     44  CG        25.9240   27.1190   23.8530 C.ar  203  PHE203     -0.0203
     45  CD1       27.0000   26.6080   24.5890 C.ar  203  PHE203     -0.0042
     46  CD2       25.7270   28.4920   23.8150 C.ar  203  PHE203     -0.0042
     47  CE1       27.8740   27.4440   25.2510 C.ar  203  PHE203     -0.0003
     48  CE2       26.5970   29.3540   24.4730 C.ar  203  PHE203     -0.0003
     49  CZ        27.6750   28.8370   25.1900 C.ar  203  PHE203     -0.0000
     50  N         34.2780   21.6930    7.6710 N.3   221  ARG221     -0.1245
     51  CA        34.1920   22.8860    8.5230 C.3   221  ARG221      0.1563
     52  C         35.3210   23.9040    8.3280 C.2   221  ARG221      0.2260
     53  O         36.5070   23.5560    8.3450 O.2   221  ARG221     -0.2867
     54  CB        34.0880   22.4860    9.9980 C.3   221  ARG221      0.0307
     55  CG        32.7810   21.7320   10.3610 C.3   221  ARG221      0.0489
     56  CD        32.7300   21.3490   11.8510 C.3   221  ARG221      0.2205
     57  NE        32.9160   22.5050   12.7350 N.pl3 221  ARG221     -0.0865
     58  CZ        31.9820   23.4190   13.0080 C.cat 221  ARG221      0.5346
     59  NH1       30.7650   23.3370   12.4830 N.pl3 221  ARG221      0.1354
     60  NH2       32.2570   24.4120   13.8270 N.pl3 221  ARG221      0.1354
     61  N         35.5160   26.7650   10.3710 N.3   223  ALA223     -0.1245
     62  CA        35.8290   27.3540   11.6570 C.3   223  ALA223      0.1562
     63  C         35.8960   26.3310   12.8040 C.2   223  ALA223      0.2260
     64  O         35.5780   25.1540   12.6240 O.2   223  ALA223     -0.2867
     65  CB        34.8240   28.4710   11.9750 C.3   223  ALA223      0.0290
     66  N         24.6220   22.5190    9.6520 N.3   234  GLY234     -0.1210
     67  CA        23.9830   22.8850   10.9130 C.3   234  GLY234      0.1956
     68  C         24.6390   24.0410   11.6170 C.2   234  GLY234      0.2612
     69  O         25.6820   24.5290   11.1920 O.2   234  GLY234     -0.2717
     70  N         24.0210   24.4920   12.7020 N.am  235  GLY235     -0.1942
     71  CA        24.4960   25.6750   13.3960 C.3   235  GLY235      0.2014
     72  C         23.5150   26.1590   14.4160 C.2   235  GLY235      0.2639
     73  O         22.5730   25.4730   14.7710 O.2   235  GLY235     -0.2714
     74  N         23.7550   27.3540   14.9180 N.am  236  PHE236     -0.1959
     75  CA        23.0300   27.8270   16.0730 C.3   236  PHE236      0.1771
     76  C         21.6010   28.1440   15.7120 C.2   236  PHE236      0.2619
     77  O         21.2960   28.6590   14.6270 O.2   236  PHE236     -0.2715
     78  CB        23.7690   29.0210   16.7190 C.3   236  PHE236      0.0574
     79  CG        24.9950   28.6080   17.5230 C.ar  236  PHE236     -0.0200
     80  CD1       26.2560   28.5870   16.9380 C.ar  236  PHE236     -0.0042
     81  CD2       24.8730   28.1940   18.8650 C.ar  236  PHE236     -0.0042
     82  CE1       27.4020   28.1660   17.6870 C.ar  236  PHE236     -0.0003
     83  CE2       26.0090   27.7730   19.6190 C.ar  236  PHE236     -0.0003
     84  CZ        27.2640   27.7570   19.0200 C.ar  236  PHE236     -0.0000
     85  N         20.7140   27.7960   16.6220 N.am  237  LEU237     -0.1963
     86  CA        19.3220   28.1890   16.5640 C.3   237  LEU237      0.1728
     87  C         19.2030   29.6460   17.0000 C.2   237  LEU237      0.2616
     88  O         19.7630   30.0540   18.0420 O.2   237  LEU237     -0.2715
     89  CB        18.5160   27.2840   17.5070 C.3   237  LEU237      0.0311
     90  CG        17.0900   27.7100   17.8350 C.3   237  LEU237      0.0022
     91  CD1       16.2150   27.5450   16.5950 C.3   237  LEU237      0.0001
     92  CD2       16.5610   26.9010   19.0080 C.3   237  LEU237      0.0001
     93  N         18.4820   30.4300   16.2050 N.am  238  GLU238     -0.1977
     94  CA        18.2760   31.8540   16.4910 C.3   238  GLU238      0.1602
     95  C         16.9940   31.9930   17.2640 C.2   238  GLU238      0.2287
     96  O         16.1980   31.0570   17.3210 O.2   238  GLU238     -0.2864
     97  CB        18.2440   32.6960   15.1940 C.3   238  GLU238      0.0415
     98  CG        19.3980   32.4240   14.2510 C.3   238  GLU238      0.1163
     99  CD        20.7310   33.0070   14.7040 C.2   238  GLU238      0.3649
    100  OE1       21.8060   32.5030   14.2830 O.co2 238  GLU238     -0.2457
    101  OE2       20.7200   33.9750   15.4900 O.co2 238  GLU238     -0.2457
    102  N         19.8680   26.6850    8.0090 N.3   250  GLU250     -0.1245
    103  CA        21.3010   26.3470    8.0550 C.3   250  GLU250      0.1567
    104  C         21.7270   25.4200    6.9330 C.2   250  GLU250      0.2260
    105  O         22.8190   25.5700    6.3830 O.2   250  GLU250     -0.2867
    106  CB        21.7120   25.7640    9.4290 C.3   250  GLU250      0.0388
    107  CG        21.7550   26.8050   10.5610 C.3   250  GLU250      0.1160
    108  CD        23.0020   27.6960   10.5500 C.2   250  GLU250      0.3649
    109  OE1       24.0100   27.3850    9.8700 O.co2 250  GLU250     -0.2457
    110  OE2       22.9770   28.7180   11.2600 O.co2 250  GLU250     -0.2457
    111  N         24.6240   26.7700    4.0640 N.3   254  GLU254     -0.1245
    112  CA        25.9520   26.1310    4.0480 C.3   254  GLU254      0.1567
    113  C         26.2030   25.2930    2.8010 C.2   254  GLU254      0.2260
    114  O         27.3550   25.0940    2.3760 O.2   254  GLU254     -0.2867
    115  CB        26.1550   25.2790    5.3110 C.3   254  GLU254      0.0388
    116  CG        26.0370   26.1110    6.5870 C.3   254  GLU254      0.1160
    117  CD        26.4520   25.4100    7.8930 C.2   254  GLU254      0.3649
    118  OE1       26.3860   26.1130    8.9340 O.co2 254  GLU254     -0.2457
    119  OE2       26.8210   24.2110    7.9190 O.co2 254  GLU254     -0.2457
    120  N         32.8940   23.4300   23.2080 N.3   282  ARG282     -0.1245
    121  CA        32.5290   24.8410   23.4700 C.3   282  ARG282      0.1563
    122  C         31.9230   25.0700   24.8440 C.2   282  ARG282      0.2260
    123  O         32.0060   26.1880   25.3970 O.2   282  ARG282     -0.2867
    124  CB        31.5230   25.3630   22.4330 C.3   282  ARG282      0.0307
    125  CG        32.1180   26.1980   21.2650 C.3   282  ARG282      0.0489
    126  CD        30.9600   26.7800   20.3740 C.3   282  ARG282      0.2205
    127  NE        29.8390   25.8390   20.3920 N.pl3 282  ARG282     -0.0865
    128  CZ        29.5470   25.0060   19.3900 C.cat 282  ARG282      0.5346
    129  NH1       30.2410   25.0570   18.2490 N.pl3 282  ARG282      0.1354
    130  NH2       28.5420   24.1430   19.5240 N.pl3 282  ARG282      0.1354
    131  N         28.9800   30.2880    4.0680 N.3   307  ASP307     -0.1225
    132  CA        29.0980   30.5410    5.5100 C.3   307  ASP307      0.1805
    133  C         30.2630   29.7160    6.0800 C.2   307  ASP307      0.2597
    134  O         31.3720   29.7370    5.5330 O.2   307  ASP307     -0.2718
    135  CB        27.7640   30.2590    6.2430 C.3   307  ASP307      0.1424
    136  CG        27.4550   31.2740    7.3750 C.2   307  ASP307      0.3668
    137  OD1       28.2040   32.2580    7.5730 O.co2 307  ASP307     -0.2456
    138  OD2       26.4390   31.0810    8.0830 O.co2 307  ASP307     -0.2456
    139  N         30.0200   28.9600    7.1410 N.am  308  ASP308     -0.1974
    140  CA        31.1230   28.2460    7.7970 C.3   308  ASP308      0.1709
    141  C         31.5070   26.8940    7.1760 C.2   308  ASP308      0.2293
    142  O         32.4220   26.2320    7.6480 O.2   308  ASP308     -0.2864
    143  CB        30.8950   28.1360    9.3190 C.3   308  ASP308      0.1436
    144  CG        29.4870   27.6840    9.6670 C.2   308  ASP308      0.3671
    145  OD1       29.3880   26.6030   10.3050 O.co2 308  ASP308     -0.2456
    146  OD2       28.4980   28.4020    9.2910 O.co2 308  ASP308     -0.2456
@<TRIPOS>BOND
     1   114   113    2
     2   113   112    1
     3   112   111    1
     4   112   115    1
     5   131   132    1
     6   115   116    1
     7   132   133    1
     8   132   135    1
     9   134   133    2
    10   133   139   am
    11   135   136    1
    12   105   104    2
    13   116   117    1
    14   104   103    1
    15   139   140    1
    16   141   142    2
    17   141   140    1
    18   136   137   ar
    19   136   138   ar
    20    50    51    1
    21   140   143    1
    22   117   119   ar
    23   117   118   ar
    24   102   103    1
    25   103   106    1
    26    52    53    2
    27    52    51    1
    28    51    54    1
    29   146   144   ar
    30   143   144    1
    31   106   107    1
    32    66    67    1
    33   144   145   ar
    34   109   108   ar
    35    54    55    1
    36    55    56    1
    37    61    62    1
    38   108   107    1
    39   108   110   ar
    40    67    68    1
    41    69    68    2
    42    68    70   am
    43    62    65    1
    44    62    63    1
    45    56    57    1
    46    59    58    1
    47    64    63    2
    48    70    71    1
    49    57    58    2
    50    58    60    1
    51    71    72    1
    52    98    99    1
    53    98    97    1
    54   100    99   ar
    55    72    73    2
    56    72    74   am
    57    77    76    2
    58    99   101   ar
    59    74    75    1
    60    97    94    1
    61    76    75    1
    62    76    85   am
    63    75    78    1
    64    93    94    1
    65    93    87   am
    66    94    95    1
    67    86    85    1
    68    86    87    1
    69    86    89    1
    70    91    90    1
    71    78    79    1
    72    80    79   ar
    73    80    82   ar
    74    87    88    2
    75    95    96    2
    76    89    90    1
    77    79    81   ar
    78    82    84   ar
    79    90    92    1
    80   129   128    1
    81     9     7   ar
    82     9    11   ar
    83     7     6   ar
    84    81    83   ar
    85    12    11    1
    86    11    10   ar
    87    84    83   ar
    88     6     5    1
    89     6     8   ar
    90     5     2    1
    91   128   130    1
    92   128   127    2
    93    10     8   ar
    94   126   127    1
    95   126   125    1
    96     2     1    1
    97     2     3    1
    98    21    19   ar
    99    21    23   ar
   100   125   124    1
   101    19    18   ar
   102    24    23    1
   103     3     4    2
   104    23    22   ar
   105   124   121    1
   106    18    17    1
   107    18    20   ar
   108    41    42    2
   109    41    40    1
   110    17    14    1
   111    22    20   ar
   112    43    40    1
   113    43    44    1
   114   120   121    1
   115   121   122    1
   116    40    39    1
   117    14    13    1
   118    14    15    1
   119    46    44   ar
   120    46    48   ar
   121    44    45   ar
   122    48    49   ar
   123    45    47   ar
   124   122   123    2
   125    33    34   ar
   126    33    31   ar
   127    36    34   ar
   128    36    38   ar
   129    15    16    2
   130    49    47   ar
   131    34    32   ar
   132    38    37   ar
   133    31    30   ar
   134    32    30   ar
   135    32    35   ar
   136    30    29    1
   137    37    35   ar
   138    25    26    1
   139    29    26    1
   140    26    27    1
   141    27    28    2
