@<TRIPOS>MOLECULE
tmp/2qjwB01.pdb
 86 82 0 0 0
SMALL
GASTEIGER

@<TRIPOS>ATOM
      1  N         35.0680    4.9710  -27.5450 N.3    12  PHE12      -0.1241
      2  CA        36.3010    5.7990  -27.7240 C.3    12  PHE12       0.1605
      3  C         36.7710    6.4860  -26.4450 C.2    12  PHE12       0.2264
      4  O         36.0290    7.2120  -25.8310 O.2    12  PHE12      -0.2867
      5  CB        36.0270    6.8090  -28.8310 C.3    12  PHE12       0.0534
      6  CG        37.1600    7.7120  -29.1040 C.ar   12  PHE12      -0.0203
      7  CD1       38.3530    7.1880  -29.5230 C.ar   12  PHE12      -0.0042
      8  CD2       37.0070    9.0930  -29.0360 C.ar   12  PHE12      -0.0042
      9  CE1       39.4280    8.0310  -29.8030 C.ar   12  PHE12      -0.0003
     10  CE2       38.0570    9.9260  -29.2990 C.ar   12  PHE12      -0.0003
     11  CZ        39.2800    9.3770  -29.6960 C.ar   12  PHE12      -0.0000
     12  N         39.6850    9.0250  -34.2070 N.3    52  LEU52      -0.1245
     13  CA        39.2790    7.9370  -33.2870 C.3    52  LEU52       0.1561
     14  C         40.4400    6.9890  -32.9280 C.2    52  LEU52       0.2260
     15  O         40.2420    5.8290  -32.5410 O.2    52  LEU52      -0.2867
     16  CB        38.1060    7.1720  -33.9050 C.3    52  LEU52       0.0270
     17  CG        36.8170    7.9990  -34.0710 C.3    52  LEU52       0.0019
     18  CD1       35.7480    7.1630  -34.7760 C.3    52  LEU52       0.0001
     19  CD2       36.3550    8.4800  -32.7140 C.3    52  LEU52       0.0001
     20  N         29.5370    2.2230  -29.2300 N.3    81  SER81      -0.1202
     21  CA        30.1610    3.2510  -30.0670 C.3    81  SER81       0.2020
     22  C         31.2830    2.6000  -30.9200 C.2    81  SER81       0.2618
     23  O         31.0740    1.6170  -31.6250 O.2    81  SER81      -0.2717
     24  CB        30.6060    4.3770  -29.1350 C.3    81  SER81       0.2103
     25  OG        31.2540    5.4430  -29.7630 O.3    81  SER81      -0.2182
     26  N         32.4970    3.1210  -30.8080 N.am   82  LEU82      -0.1979
     27  CA        33.6170    2.5710  -31.5390 C.3    82  LEU82       0.1596
     28  C         33.7890    1.0640  -31.2690 C.2    82  LEU82       0.2287
     29  O         34.1130    0.3380  -32.1920 O.2    82  LEU82      -0.2864
     30  CB        34.8650    3.3400  -31.1700 C.3    82  LEU82       0.0297
     31  CG        36.1800    2.9330  -31.8860 C.3    82  LEU82       0.0022
     32  CD1       36.0680    2.9290  -33.4210 C.3    82  LEU82       0.0001
     33  CD2       37.3260    3.8100  -31.4420 C.3    82  LEU82       0.0001
     34  N         28.7470    3.1020  -35.1160 N.3   104  PRO104     -0.2116
     35  CA        29.1590    3.8440  -36.2680 C.3   104  PRO104      0.1372
     36  C         28.8740    3.0010  -37.5030 C.2   104  PRO104      0.2244
     37  O         29.2330    1.8360  -37.5610 O.2   104  PRO104     -0.2868
     38  CB        30.6780    3.9720  -36.0610 C.3   104  PRO104      0.0268
     39  CG        30.9030    3.8140  -34.6310 C.3   104  PRO104      0.0207
     40  CD        29.8680    2.8340  -34.2040 C.3   104  PRO104      0.0892
     41  N         29.9920    4.1640  -40.6420 N.3   106  LYS106     -0.1245
     42  CA        31.1170    4.4900  -41.5410 C.3   106  LYS106      0.1561
     43  C         32.3260    4.7350  -40.6980 C.2   106  LYS106      0.2260
     44  O         32.2040    5.1730  -39.5600 O.2   106  LYS106     -0.2867
     45  CB        30.8190    5.7560  -42.3170 C.3   106  LYS106      0.0271
     46  CG        29.5750    5.6990  -43.1940 C.3   106  LYS106      0.0035
     47  CD        29.1360    7.1340  -43.5510 C.3   106  LYS106      0.0206
     48  CE        27.7370    7.1800  -44.2050 C.3   106  LYS106      0.1093
     49  NZ        27.2680    8.5940  -44.3860 N.3   106  LYS106     -0.1314
     50  N         26.5040   12.3370  -33.7720 N.3   129  LEU129     -0.1231
     51  CA        27.6580   11.7590  -34.4840 C.3   129  LEU129      0.1693
     52  C         27.2870   10.6970  -35.5090 C.2   129  LEU129      0.2591
     53  O         27.9520   10.5400  -36.5480 O.2   129  LEU129     -0.2718
     54  CB        28.6240   11.1720  -33.4290 C.3   129  LEU129      0.0284
     55  CG        29.1650   12.0950  -32.3510 C.3   129  LEU129      0.0019
     56  CD1       29.9390   11.3490  -31.1920 C.3   129  LEU129      0.0001
     57  CD2       30.0280   13.1870  -33.0240 C.3   129  LEU129      0.0001
     58  N         26.1930    9.9600  -35.2710 N.am  130  ILE130     -0.1980
     59  CA        25.7620    8.8950  -36.1180 C.3   130  ILE130      0.1595
     60  C         24.2600    9.0550  -36.2950 C.2   130  ILE130      0.2287
     61  O         23.4800    8.6740  -35.4160 O.2   130  ILE130     -0.2864
     62  CB        26.0150    7.5180  -35.4500 C.3   130  ILE130      0.0276
     63  CG1       27.4810    7.3310  -34.9970 C.3   130  ILE130      0.0022
     64  CG2       25.6390    6.3590  -36.4030 C.3   130  ILE130      0.0022
     65  CD1       27.6990    6.2140  -34.0050 C.3   130  ILE130      0.0001
     66  N         24.2110   10.3010  -28.1890 N.3   153  HIS153     -0.1226
     67  CA        25.2060    9.2600  -28.4230 C.3   153  HIS153      0.1752
     68  C         25.7310    8.5650  -27.2290 C.2   153  HIS153      0.2595
     69  O         26.0140    7.3550  -27.3080 O.2   153  HIS153     -0.2718
     70  CB        26.4260    9.8470  -29.2120 C.3   153  HIS153      0.0759
     71  CG        27.4190    8.7930  -29.5830 C.ar  153  HIS153      0.0818
     72  ND1       27.1760    7.8830  -30.5870 N.ar  153  HIS153     -0.2268
     73  CD2       28.6400    8.4860  -29.0700 C.ar  153  HIS153      0.1154
     74  CE1       28.2100    7.0520  -30.6690 C.ar  153  HIS153      0.1986
     75  NE2       29.0820    7.3770  -29.7320 N.ar  153  HIS153     -0.2212
     76  N         25.8970    9.2520  -26.1070 N.am  154  ARG154     -0.1980
     77  CA        26.4680    8.6150  -24.9480 C.3   154  ARG154      0.1597
     78  C         25.4710    7.7760  -24.1500 C.2   154  ARG154      0.2287
     79  O         25.8620    7.0940  -23.1790 O.2   154  ARG154     -0.2864
     80  CB        27.1800    9.6760  -24.1220 C.3   154  ARG154      0.0334
     81  CG        28.3230   10.3180  -24.8780 C.3   154  ARG154      0.0492
     82  CD        29.2100   11.1730  -23.9600 C.3   154  ARG154      0.2205
     83  NE        29.8730   12.1430  -24.8250 N.pl3 154  ARG154     -0.0865
     84  CZ        30.8960   11.9190  -25.6410 C.cat 154  ARG154      0.5346
     85  NH1       31.5040   10.7670  -25.6650 N.pl3 154  ARG154      0.1354
     86  NH2       31.3330   12.8920  -26.4330 N.pl3 154  ARG154      0.1354
@<TRIPOS>BOND
     1    49    48    1
     2    48    47    1
     3    47    46    1
     4    46    45    1
     5    45    42    1
     6    42    43    1
     7    42    41    1
     8    43    44    2
     9    37    36    2
    10    36    35    1
    11    53    52    2
    12    64    62    1
    13    60    59    1
    14    60    61    2
    15    35    38    1
    16    35    34    1
    17    59    62    1
    18    59    58    1
    19    38    39    1
    20    52    58   am
    21    52    51    1
    22    62    63    1
    23    34    40    1
    24    63    65    1
    25    18    17    1
    26    39    40    1
    27    51    50    1
    28    51    54    1
    29    12    13    1
    30    17    16    1
    31    17    19    1
    32    16    13    1
    33    54    55    1
    34    32    31    1
    35    13    14    1
    36    57    55    1
    37    14    15    2
    38    55    56    1
    39    29    28    2
    40    31    33    1
    41    31    30    1
    42    23    22    2
    43    27    28    1
    44    27    30    1
    45    27    26    1
    46    22    26   am
    47    22    21    1
    48    74    72   ar
    49    74    75   ar
    50    72    71   ar
    51    21    20    1
    52    21    24    1
    53     9    11   ar
    54     9     7   ar
    55    25    24    1
    56    75    73   ar
    57    11    10   ar
    58    71    70    1
    59    71    73   ar
    60     7     6   ar
    61    10     8   ar
    62    70    67    1
    63     6     8   ar
    64     6     5    1
    65     5     2    1
    66    67    66    1
    67    67    68    1
    68     2     1    1
    69     2     3    1
    70    69    68    2
    71    68    76   am
    72     3     4    2
    73    86    84    1
    74    76    77    1
    75    85    84    1
    76    84    83    2
    77    77    78    1
    78    77    80    1
    79    81    80    1
    80    81    82    1
    81    83    82    1
    82    78    79    2
