@<TRIPOS>MOLECULE
tmp/2qjwB00.pdb
 75 70 0 0 0
SMALL
GASTEIGER

@<TRIPOS>ATOM
      1  N         33.7990    2.0680  -25.6680 N.3    11  GLY11      -0.1210
      2  CA        33.7840    3.1170  -26.6380 C.3    11  GLY11       0.1956
      3  C         35.0790    3.9210  -26.7250 C.2    11  GLY11       0.2611
      4  O         36.0640    3.6380  -26.0490 O.2    11  GLY11      -0.2717
      5  N         35.0680    4.9710  -27.5450 N.am   12  PHE12      -0.1976
      6  CA        36.3010    5.7990  -27.7240 C.3    12  PHE12       0.1639
      7  C         36.7710    6.4860  -26.4450 C.2    12  PHE12       0.2290
      8  O         36.0290    7.2120  -25.8310 O.2    12  PHE12      -0.2864
      9  CB        36.0270    6.8090  -28.8310 C.3    12  PHE12       0.0560
     10  CG        37.1600    7.7120  -29.1040 C.ar   12  PHE12      -0.0200
     11  CD1       38.3530    7.1880  -29.5230 C.ar   12  PHE12      -0.0042
     12  CD2       37.0070    9.0930  -29.0360 C.ar   12  PHE12      -0.0042
     13  CE1       39.4280    8.0310  -29.8030 C.ar   12  PHE12      -0.0003
     14  CE2       38.0570    9.9260  -29.2990 C.ar   12  PHE12      -0.0003
     15  CZ        39.2800    9.3770  -29.6960 C.ar   12  PHE12      -0.0000
     16  N         37.0040    5.5470  -23.4580 N.3    14  SER14      -0.1217
     17  CA        36.3350    5.3470  -22.1720 C.3    14  SER14       0.1889
     18  C         36.9110    4.2950  -21.2640 C.2    14  SER14       0.2288
     19  O         36.7590    4.3700  -20.0450 O.2    14  SER14      -0.2866
     20  CB        34.8680    5.0310  -22.4220 C.3    14  SER14       0.2089
     21  OG        34.7680    3.7970  -23.0600 O.3    14  SER14      -0.2183
     22  N         34.3840    1.7480  -18.0920 N.3    18  ALA18      -0.1245
     23  CA        33.4280    2.7350  -18.5520 C.3    18  ALA18       0.1562
     24  C         32.0010    2.3440  -18.1810 C.2    18  ALA18       0.2260
     25  O         31.6720    1.1660  -17.9990 O.2    18  ALA18      -0.2867
     26  CB        33.5530    2.8980  -20.0090 C.3    18  ALA18       0.0290
     27  N         29.0180    2.1490  -19.6360 N.3    20  LYS20      -0.1245
     28  CA        28.1530    1.2240  -20.4220 C.3    20  LYS20       0.1561
     29  C         28.6850   -0.2130  -20.5620 C.2    20  LYS20       0.2260
     30  O         27.9050   -1.1490  -20.3830 O.2    20  LYS20      -0.2867
     31  CB        27.7770    1.8140  -21.7430 C.3    20  LYS20       0.0271
     32  CG        26.9490    3.1510  -21.5320 C.3    20  LYS20       0.0035
     33  CD        26.2200    3.6800  -22.7590 C.3    20  LYS20       0.0206
     34  CE        27.1260    4.0060  -23.9190 C.3    20  LYS20       0.1093
     35  NZ        27.9690    5.1700  -23.5100 N.3    20  LYS20      -0.1314
     36  N         30.0520   -0.7460  -27.4510 N.3    80  SER80      -0.1202
     37  CA        29.4680    0.5830  -27.3940 C.3    80  SER80       0.2020
     38  C         30.2230    1.4610  -28.3630 C.2    80  SER80       0.2619
     39  O         31.4610    1.4800  -28.3140 O.2    80  SER80      -0.2717
     40  CB        29.5880    1.1810  -26.0090 C.3    80  SER80       0.2103
     41  OG        28.8110    2.3470  -25.9740 O.3    80  SER80      -0.2182
     42  N         29.5370    2.2230  -29.2300 N.am   81  SER81      -0.1951
     43  CA        30.1610    3.2510  -30.0670 C.3    81  SER81       0.1924
     44  C         31.2830    2.6000  -30.9200 C.2    81  SER81       0.2314
     45  O         31.0740    1.6170  -31.6250 O.2    81  SER81      -0.2863
     46  CB        30.6060    4.3770  -29.1350 C.3    81  SER81       0.2116
     47  OG        31.2540    5.4430  -29.7630 O.3    81  SER81      -0.2180
     48  N         24.8570    2.2560  -30.1650 N.3   102  VAL102     -0.1245
     49  CA        25.2290    3.4020  -31.0230 C.3   102  VAL102      0.1561
     50  C         26.3730    3.0510  -31.9640 C.2   102  VAL102      0.2260
     51  O         27.4320    3.6790  -31.8880 O.2   102  VAL102     -0.2867
     52  CB        25.4910    4.6470  -30.1510 C.3   102  VAL102      0.0252
     53  CG1       24.1830    5.1460  -29.4860 C.3   102  VAL102      0.0019
     54  CG2       26.4910    4.3490  -29.0290 C.3   102  VAL102      0.0019
     55  N         24.2110   10.3010  -28.1890 N.3   153  HIS153     -0.1226
     56  CA        25.2060    9.2600  -28.4230 C.3   153  HIS153      0.1752
     57  C         25.7310    8.5650  -27.2290 C.2   153  HIS153      0.2595
     58  O         26.0140    7.3550  -27.3080 O.2   153  HIS153     -0.2718
     59  CB        26.4260    9.8470  -29.2120 C.3   153  HIS153      0.0759
     60  CG        27.4190    8.7930  -29.5830 C.ar  153  HIS153      0.0818
     61  ND1       27.1760    7.8830  -30.5870 N.ar  153  HIS153     -0.2268
     62  CD2       28.6400    8.4860  -29.0700 C.ar  153  HIS153      0.1154
     63  CE1       28.2100    7.0520  -30.6690 C.ar  153  HIS153      0.1986
     64  NE2       29.0820    7.3770  -29.7320 N.ar  153  HIS153     -0.2212
     65  N         25.8970    9.2520  -26.1070 N.am  154  ARG154     -0.1980
     66  CA        26.4680    8.6150  -24.9480 C.3   154  ARG154      0.1597
     67  C         25.4710    7.7760  -24.1500 C.2   154  ARG154      0.2287
     68  O         25.8620    7.0940  -23.1790 O.2   154  ARG154     -0.2864
     69  CB        27.1800    9.6760  -24.1220 C.3   154  ARG154      0.0334
     70  CG        28.3230   10.3180  -24.8780 C.3   154  ARG154      0.0492
     71  CD        29.2100   11.1730  -23.9600 C.3   154  ARG154      0.2205
     72  NE        29.8730   12.1430  -24.8250 N.pl3 154  ARG154     -0.0865
     73  CZ        30.8960   11.9190  -25.6410 C.cat 154  ARG154      0.5346
     74  NH1       31.5040   10.7670  -25.6650 N.pl3 154  ARG154      0.1354
     75  NH2       31.3330   12.8920  -26.4330 N.pl3 154  ARG154      0.1354
@<TRIPOS>BOND
     1    50    51    2
     2    50    49    1
     3    45    44    2
     4    49    48    1
     5    49    52    1
     6    44    43    1
     7    63    61   ar
     8    63    64   ar
     9    61    60   ar
    10    52    53    1
    11    52    54    1
    12    43    42    1
    13    43    46    1
    14    13    15   ar
    15    13    11   ar
    16    47    46    1
    17    64    62   ar
    18    15    14   ar
    19    60    59    1
    20    60    62   ar
    21    11    10   ar
    22    14    12   ar
    23    42    38   am
    24    59    56    1
    25    10    12   ar
    26    10     9    1
    27     9     6    1
    28    56    55    1
    29    56    57    1
    30    38    39    2
    31    38    37    1
    32     6     5    1
    33     6     7    1
    34     5     3   am
    35    36    37    1
    36    37    40    1
    37    58    57    2
    38    57    65   am
    39     3     2    1
    40     3     4    2
    41     2     1    1
    42     7     8    2
    43    75    73    1
    44    65    66    1
    45    40    41    1
    46    74    73    1
    47    73    72    2
    48    66    67    1
    49    66    69    1
    50    70    69    1
    51    70    71    1
    52    72    71    1
    53    67    68    2
    54    34    35    1
    55    34    33    1
    56    16    17    1
    57    21    20    1
    58    33    32    1
    59    20    17    1
    60    17    18    1
    61    31    32    1
    62    31    28    1
    63    18    19    2
    64    29    28    1
    65    29    30    2
    66    28    27    1
    67    26    23    1
    68    23    24    1
    69    23    22    1
    70    24    25    2
