@<TRIPOS>MOLECULE
tmp/2qjyM05.pdb
 175 165 0 0 0
SMALL
GASTEIGER

@<TRIPOS>ATOM
      1  N        -28.9110  -50.5070   24.7600 N.3    30  THR30      -0.1203
      2  CA       -27.5560  -50.4450   25.2920 C.3    30  THR30       0.1994
      3  C        -26.5870  -49.9030   24.2500 C.2    30  THR30       0.2617
      4  O        -25.7750  -49.0240   24.5240 O.2    30  THR30      -0.2717
      5  CB       -27.0800  -51.8470   25.7310 C.3    30  THR30       0.1784
      6  OG1      -27.8680  -52.2880   26.8440 O.3    30  THR30      -0.2211
      7  CG2      -25.6110  -51.8180   26.1270 C.3    30  THR30       0.0376
      8  N        -26.6990  -50.4430   23.0450 N.am   31  ILE31      -0.1979
      9  CA       -25.8510  -50.0690   21.9280 C.3    31  ILE31       0.1595
     10  C        -26.1850  -48.6840   21.3660 C.2    31  ILE31       0.2287
     11  O        -25.3760  -48.0830   20.6600 O.2    31  ILE31      -0.2864
     12  CB       -25.9760  -51.1270   20.8010 C.3    31  ILE31       0.0276
     13  CG1      -24.8770  -50.9270   19.7570 C.3    31  ILE31       0.0022
     14  CG2      -27.3420  -51.0370   20.1560 C.3    31  ILE31       0.0022
     15  CD1      -23.4910  -51.1890   20.2840 C.3    31  ILE31       0.0001
     16  N        -27.3830  -45.9560   23.4090 N.3    33  ILE33      -0.1245
     17  CA       -27.2440  -44.9020   24.4160 C.3    33  ILE33       0.1561
     18  C        -26.5720  -43.6260   23.9020 C.2    33  ILE33       0.2260
     19  O        -25.5340  -43.6770   23.2450 O.2    33  ILE33      -0.2867
     20  CB       -26.4350  -45.3830   25.6440 C.3    33  ILE33       0.0252
     21  CG1      -26.4800  -44.3130   26.7410 C.3    33  ILE33       0.0019
     22  CG2      -24.9900  -45.6620   25.2400 C.3    33  ILE33       0.0019
     23  CD1      -25.6440  -44.6310   27.9670 C.3    33  ILE33       0.0001
     24  N        -24.2580  -40.6550   23.8070 N.3    35  THR35      -0.1218
     25  CA       -22.9380  -40.4180   24.3900 C.3    35  THR35       0.1862
     26  C        -22.3630  -39.0270   24.0810 C.2    35  THR35       0.2287
     27  O        -22.3750  -38.5970   22.9260 O.2    35  THR35      -0.2866
     28  CB       -21.9480  -41.4910   23.8630 C.3    35  THR35       0.1770
     29  OG1      -22.4730  -42.7950   24.1370 O.3    35  THR35      -0.2211
     30  CG2      -20.5870  -41.3440   24.5120 C.3    35  THR35       0.0375
     31  N        -10.8190  -42.0640   26.2440 N.3    43  TRP43      -0.1241
     32  CA       -12.0390  -42.8000   26.5430 C.3    43  TRP43       0.1605
     33  C        -12.0330  -44.1670   25.8630 C.2    43  TRP43       0.2264
     34  O        -13.0250  -44.8940   25.9120 O.2    43  TRP43      -0.2867
     35  CB       -13.2610  -41.9890   26.0950 C.3    43  TRP43       0.0550
     36  CG       -13.9270  -41.2470   27.2150 C.ar   43  TRP43       0.0003
     37  CD1      -15.0940  -41.5880   27.8390 C.ar   43  TRP43       0.0946
     38  CD2      -13.4470  -40.0710   27.8850 C.ar   43  TRP43       0.0152
     39  NE1      -15.3740  -40.6990   28.8580 N.ar   43  TRP43      -0.2442
     40  CE2      -14.3790  -39.7590   28.9070 C.ar   43  TRP43       0.0810
     41  CE3      -12.3210  -39.2530   27.7260 C.ar   43  TRP43       0.0012
     42  CZ2      -14.2180  -38.6630   29.7600 C.ar   43  TRP43       0.0191
     43  CZ3      -12.1610  -38.1610   28.5780 C.ar   43  TRP43       0.0001
     44  CH2      -13.1060  -37.8790   29.5790 C.ar   43  TRP43       0.0015
     45  N        -11.3570  -48.3110   28.1680 N.3    46  GLY46      -0.1210
     46  CA       -12.3220  -49.2440   28.7200 C.3    46  GLY46       0.1956
     47  C        -12.5680  -50.3750   27.7340 C.2    46  GLY46       0.2611
     48  O        -12.7510  -51.5250   28.1290 O.2    46  GLY46      -0.2717
     49  N        -12.5630  -50.0490   26.4440 N.am   47  VAL47      -0.1979
     50  CA       -12.7610  -51.0500   25.4170 C.3    47  VAL47       0.1595
     51  C        -11.5000  -51.8920   25.3100 C.2    47  VAL47       0.2287
     52  O        -11.5740  -53.1090   25.1030 O.2    47  VAL47      -0.2864
     53  CB       -13.1050  -50.4050   24.0470 C.3    47  VAL47       0.0276
     54  CG1      -12.7760  -51.3670   22.9050 C.3    47  VAL47       0.0022
     55  CG2      -14.5870  -50.0760   24.0050 C.3    47  VAL47       0.0022
     56  N        -11.8590  -54.4080   28.0360 N.3    50  ALA50      -0.1245
     57  CA       -12.8520  -55.4550   27.7750 C.3    50  ALA50       0.1562
     58  C        -12.2300  -56.5070   26.8520 C.2    50  ALA50       0.2260
     59  O        -12.3530  -57.7010   27.0900 O.2    50  ALA50      -0.2867
     60  CB       -14.0890  -54.8540   27.1250 C.3    50  ALA50       0.0290
     61  N         -9.6970  -58.6520   28.6840 N.3    53  LEU53      -0.1231
     62  CA       -10.3210  -59.6370   29.5430 C.3    53  LEU53       0.1693
     63  C        -10.7110  -60.8470   28.6930 C.2    53  LEU53       0.2591
     64  O        -10.4320  -61.9860   29.0640 O.2    53  LEU53      -0.2718
     65  CB       -11.5530  -59.0570   30.2420 C.3    53  LEU53       0.0284
     66  CG       -12.2760  -60.0280   31.1830 C.3    53  LEU53       0.0019
     67  CD1      -11.2870  -60.6210   32.1740 C.3    53  LEU53       0.0001
     68  CD2      -13.3960  -59.3020   31.9060 C.3    53  LEU53       0.0001
     69  N        -11.3400  -60.6060   27.5440 N.am   54  VAL54      -0.1980
     70  CA       -11.7400  -61.6910   26.6570 C.3    54  VAL54       0.1595
     71  C        -10.4900  -62.4180   26.1460 C.2    54  VAL54       0.2287
     72  O        -10.4400  -63.6490   26.1710 O.2    54  VAL54      -0.2864
     73  CB       -12.5880  -61.1670   25.4650 C.3    54  VAL54       0.0276
     74  CG1      -12.9410  -62.3130   24.5280 C.3    54  VAL54       0.0022
     75  CG2      -13.8620  -60.5140   25.9870 C.3    54  VAL54       0.0022
     76  N         -9.1090  -64.6050   28.8480 N.3    57  ILE57      -0.1245
     77  CA        -9.9450  -65.7650   29.1230 C.3    57  ILE57       0.1561
     78  C         -9.8470  -66.8370   28.0410 C.2    57  ILE57       0.2260
     79  O         -9.6140  -68.0020   28.3690 O.2    57  ILE57      -0.2867
     80  CB       -11.4180  -65.3600   29.3600 C.3    57  ILE57       0.0252
     81  CG1      -11.5500  -64.7070   30.7510 C.3    57  ILE57       0.0019
     82  CG2      -12.3190  -66.5790   29.2520 C.3    57  ILE57       0.0019
     83  CD1      -12.9360  -64.2280   31.1010 C.3    57  ILE57       0.0001
     84  N        -15.2810  -60.7670   35.2520 N.3   204  ALA204     -0.1245
     85  CA       -16.2730  -60.6000   34.1860 C.3   204  ALA204      0.1562
     86  C        -17.6180  -60.1920   34.7840 C.2   204  ALA204      0.2260
     87  O        -18.3160  -59.3320   34.2370 O.2   204  ALA204     -0.2867
     88  CB       -16.4280  -61.8940   33.3940 C.3   204  ALA204      0.0290
     89  N        -17.3310  -56.6200   35.9030 N.3   207  VAL207     -0.1231
     90  CA       -17.3080  -55.7270   34.7540 C.3   207  VAL207      0.1692
     91  C        -18.7340  -55.4920   34.2660 C.2   207  VAL207      0.2591
     92  O        -19.0500  -54.4270   33.7510 O.2   207  VAL207     -0.2718
     93  CB       -16.4580  -56.3110   33.6060 C.3   207  VAL207      0.0266
     94  CG1      -16.7350  -55.5640   32.3070 C.3   207  VAL207      0.0020
     95  CG2      -14.9830  -56.1980   33.9530 C.3   207  VAL207      0.0020
     96  N        -19.5920  -56.4910   34.4310 N.am  208  ALA208     -0.1980
     97  CA       -20.9790  -56.3630   34.0130 C.3   208  ALA208      0.1597
     98  C        -21.6340  -55.2810   34.8590 C.2   208  ALA208      0.2287
     99  O        -22.3560  -54.4300   34.3400 O.2   208  ALA208     -0.2864
    100  CB       -21.7110  -57.6970   34.1890 C.3   208  ALA208      0.0319
    101  N        -20.2930  -51.7960   33.8510 N.3   211  ILE211     -0.1245
    102  CA       -20.9590  -51.2670   32.6630 C.3   211  ILE211      0.1561
    103  C        -22.3620  -50.7730   33.0000 C.2   211  ILE211      0.2260
    104  O        -22.7760  -49.6970   32.5630 O.2   211  ILE211     -0.2867
    105  CB       -21.0220  -52.3380   31.5530 C.3   211  ILE211      0.0252
    106  CG1      -19.5970  -52.6670   31.1040 C.3   211  ILE211      0.0019
    107  CG2      -21.8470  -51.8370   30.3710 C.3   211  ILE211      0.0019
    108  CD1      -19.4800  -53.8950   30.2440 C.3   211  ILE211      0.0001
    109  N        -22.0210  -47.3060   34.8710 N.3   214  PHE214     -0.1227
    110  CA       -21.8380  -46.0810   34.1190 C.3   214  PHE214      0.1736
    111  C        -22.9540  -45.8560   33.1120 C.2   214  PHE214      0.2595
    112  O        -23.1690  -44.7440   32.6510 O.2   214  PHE214     -0.2718
    113  CB       -20.4370  -45.9900   33.4820 C.3   214  PHE214      0.0547
    114  CG       -20.1590  -46.9780   32.3890 C.ar  214  PHE214     -0.0202
    115  CD1      -20.6310  -46.7690   31.0960 C.ar  214  PHE214     -0.0042
    116  CD2      -19.3390  -48.0780   32.6340 C.ar  214  PHE214     -0.0042
    117  CE1      -20.2800  -47.6410   30.0640 C.ar  214  PHE214     -0.0003
    118  CE2      -18.9900  -48.9480   31.6100 C.ar  214  PHE214     -0.0003
    119  CZ       -19.4600  -48.7280   30.3240 C.ar  214  PHE214     -0.0000
    120  N        -23.6960  -46.9070   32.7910 N.am  215  HIS215     -0.1975
    121  CA       -24.8180  -46.7480   31.8740 C.3   215  HIS215      0.1656
    122  C        -25.9570  -46.0690   32.6320 C.2   215  HIS215      0.2291
    123  O        -26.7070  -45.2830   32.0550 O.2   215  HIS215     -0.2864
    124  CB       -25.2550  -48.1060   31.2970 C.3   215  HIS215      0.0771
    125  CG       -24.7970  -48.3270   29.8860 C.ar  215  HIS215      0.0820
    126  ND1      -25.5790  -48.0190   28.7930 N.ar  215  HIS215     -0.2267
    127  CD2      -23.6060  -48.7370   29.3930 C.ar  215  HIS215      0.1154
    128  CE1      -24.8880  -48.2270   27.6880 C.ar  215  HIS215      0.1986
    129  NE2      -23.6880  -48.6620   28.0250 N.ar  215  HIS215     -0.2212
    130  N        -22.0440  -41.6070   30.5620 N.3   219  ASN219     -0.1240
    131  CA       -20.6070  -41.3650   30.5560 C.3   219  ASN219      0.1653
    132  C        -20.2760  -39.9340   30.9430 C.2   219  ASN219      0.2266
    133  O        -21.0670  -39.0230   30.7370 O.2   219  ASN219     -0.2867
    134  CB       -20.0320  -41.6130   29.1560 C.3   219  ASN219      0.1155
    135  CG       -20.0090  -43.0770   28.7700 C.2   219  ASN219      0.2627
    136  OD1      -19.4170  -43.9020   29.4630 O.2   219  ASN219     -0.2716
    137  ND2      -20.6400  -43.4020   27.6450 N.am  219  ASN219     -0.0877
    138  N        -24.0610  -44.1810   20.7610 N.3   242  PHE242     -0.1241
    139  CA       -22.8540  -44.9770   20.9000 C.3   242  PHE242      0.1605
    140  C        -22.5850  -45.7290   19.5970 C.2   242  PHE242      0.2264
    141  O        -21.4650  -45.7170   19.0820 O.2   242  PHE242     -0.2867
    142  CB       -23.0130  -45.9430   22.0720 C.3   242  PHE242      0.0534
    143  CG       -21.8080  -46.7860   22.3190 C.ar  242  PHE242     -0.0203
    144  CD1      -20.5380  -46.2170   22.3060 C.ar  242  PHE242     -0.0042
    145  CD2      -21.9320  -48.1520   22.5380 C.ar  242  PHE242     -0.0042
    146  CE1      -19.4080  -47.0010   22.4990 C.ar  242  PHE242     -0.0003
    147  CE2      -20.8070  -48.9410   22.7340 C.ar  242  PHE242     -0.0003
    148  CZ       -19.5430  -48.3630   22.7120 C.ar  242  PHE242     -0.0000
    149  N        -19.2410  -44.0910   18.3270 N.3   246  PHE246     -0.1227
    150  CA       -18.1360  -44.4260   19.2050 C.3   246  PHE246      0.1736
    151  C        -17.6670  -45.8620   19.0450 C.2   246  PHE246      0.2595
    152  O        -16.4720  -46.1350   19.1210 O.2   246  PHE246     -0.2718
    153  CB       -18.4990  -44.0710   20.6480 C.3   246  PHE246      0.0547
    154  CG       -18.4110  -42.5970   20.9210 C.ar  246  PHE246     -0.0202
    155  CD1      -17.2160  -41.9200   20.6900 C.ar  246  PHE246     -0.0042
    156  CD2      -19.5230  -41.8690   21.3350 C.ar  246  PHE246     -0.0042
    157  CE1      -17.1270  -40.5480   20.8610 C.ar  246  PHE246     -0.0003
    158  CE2      -19.4410  -40.4840   21.5090 C.ar  246  PHE246     -0.0003
    159  CZ       -18.2360  -39.8250   21.2670 C.ar  246  PHE246     -0.0000
    160  N        -18.5980  -46.7730   18.7920 N.am  247  ILE247     -0.1980
    161  CA       -18.2420  -48.1700   18.5830 C.3   247  ILE247      0.1595
    162  C        -17.1310  -48.2490   17.5430 C.2   247  ILE247      0.2287
    163  O        -16.2080  -49.0520   17.6620 O.2   247  ILE247     -0.2864
    164  CB       -19.4260  -48.9880   18.0310 C.3   247  ILE247      0.0276
    165  CG1      -20.4970  -49.1690   19.1090 C.3   247  ILE247      0.0022
    166  CG2      -18.9270  -50.3430   17.5200 C.3   247  ILE247      0.0022
    167  CD1      -20.3080  -50.4110   19.9560 C.3   247  ILE247      0.0001
    168  N        -13.7270  -46.6440   18.7500 N.3   250  ASP250     -0.1239
    169  CA       -13.2020  -47.5860   19.7430 C.3   250  ASP250      0.1674
    170  C        -12.5140  -48.7420   19.0190 C.2   250  ASP250      0.2266
    171  O        -11.3490  -49.0480   19.2770 O.2   250  ASP250     -0.2867
    172  CB       -14.3370  -48.1530   20.6010 C.3   250  ASP250      0.1410
    173  CG       -14.8400  -47.1680   21.6350 C.2   250  ASP250      0.3668
    174  OD1      -14.8260  -45.9480   21.3610 O.co2 250  ASP250     -0.2456
    175  OD2      -15.2660  -47.6120   22.7230 O.co2 250  ASP250     -0.2456
@<TRIPOS>BOND
     1   166   164    1
     2   162   163    2
     3   162   161    1
     4   164   161    1
     5   164   165    1
     6   149   150    1
     7   161   160    1
     8   168   169    1
     9   160   151   am
    10   170   171    2
    11   170   169    1
    12   151   152    2
    13   151   150    1
    14   141   140    2
    15   165   167    1
    16   150   153    1
    17   140   139    1
    18   169   172    1
    19    13    15    1
    20    13    12    1
    21    14    12    1
    22   172   173    1
    23   153   154    1
    24    11    10    2
    25   155   157   ar
    26   155   154   ar
    27   138   139    1
    28    12     9    1
    29   157   159   ar
    30   139   142    1
    31   154   156   ar
    32   159   158   ar
    33   156   158   ar
    34   174   173   ar
    35    10     9    1
    36   173   175   ar
    37     9     8    1
    38   142   143    1
    39   144   143   ar
    40   144   146   ar
    41   143   145   ar
    42   146   148   ar
    43   145   147   ar
    44   148   147   ar
    45    54    53    1
    46    27    26    2
    47     8     3   am
    48    19    18    2
    49    16    17    1
    50    24    25    1
    51    28    29    1
    52    28    25    1
    53    28    30    1
    54    18    17    1
    55    55    53    1
    56    53    50    1
    57    26    25    1
    58     3     4    2
    59     3     2    1
    60    17    20    1
    61    74    73    1
    62     1     2    1
    63    52    51    2
    64    22    20    1
    65     2     5    1
    66    51    50    1
    67    50    49    1
    68    73    75    1
    69    73    70    1
    70    20    21    1
    71     5     7    1
    72     5     6    1
    73    33    34    2
    74    33    32    1
    75    35    32    1
    76    35    36    1
    77    71    72    2
    78    71    70    1
    79    31    32    1
    80    49    47   am
    81    70    69    1
    82    21    23    1
    83    58    59    2
    84    58    57    1
    85    60    57    1
    86    36    37   ar
    87    36    38   ar
    88    69    63   am
    89   137   135   am
    90   128   129   ar
    91   128   126   ar
    92    41    38   ar
    93    41    43   ar
    94    47    48    2
    95    47    46    1
    96    57    56    1
    97    37    39   ar
    98    38    40   ar
    99   129   127   ar
   100    78    79    2
   101    78    77    1
   102    45    46    1
   103    43    44   ar
   104    61    62    1
   105    63    64    2
   106    63    62    1
   107   135   134    1
   108   135   136    2
   109   126   125   ar
   110    76    77    1
   111    39    40   ar
   112    40    42   ar
   113    77    80    1
   114   134   131    1
   115    82    80    1
   116    80    81    1
   117   127   125   ar
   118    62    65    1
   119    44    42   ar
   120   125   124    1
   121   117   119   ar
   122   117   115   ar
   123    65    66    1
   124   108   106    1
   125   119   118   ar
   126   107   105    1
   127   131   130    1
   128   131   132    1
   129   133   132    2
   130    81    83    1
   131   115   114   ar
   132   106   105    1
   133    66    68    1
   134    66    67    1
   135   124   121    1
   136   105   102    1
   137   118   116   ar
   138   121   122    1
   139   121   120    1
   140   123   122    2
   141    94    93    1
   142   114   116   ar
   143   114   113    1
   144   104   103    2
   145   112   111    2
   146   102   103    1
   147   102   101    1
   148   120   111   am
   149   111   110    1
   150    88    85    1
   151   113   110    1
   152    93    95    1
   153    93    90    1
   154    92    91    2
   155    97   100    1
   156    97    96    1
   157    97    98    1
   158   110   109    1
   159    85    86    1
   160    85    84    1
   161    87    86    2
   162    91    96   am
   163    91    90    1
   164    99    98    2
   165    90    89    1
