@<TRIPOS>MOLECULE
tmp/2qk4B00.pdb
 139 128 0 0 0
SMALL
GASTEIGER

@<TRIPOS>ATOM
      1  N        -39.0650  -10.2010   64.2020 N.3   123  ALA123     -0.1245
      2  CA       -40.4630  -10.6360   64.2470 C.3   123  ALA123      0.1562
      3  C        -40.5330  -12.1300   64.5260 C.2   123  ALA123      0.2260
      4  O        -39.7230  -12.9020   63.9930 O.2   123  ALA123     -0.2867
      5  CB       -41.1890  -10.3250   62.9330 C.3   123  ALA123      0.0290
      6  N        -46.7580  -11.5040   57.0810 N.3   147  VAL147     -0.1245
      7  CA       -45.6820  -11.1330   56.1680 C.3   147  VAL147      0.1561
      8  C        -45.0420  -12.3830   55.6020 C.2   147  VAL147      0.2260
      9  O        -44.5050  -13.2030   56.3390 O.2   147  VAL147     -0.2867
     10  CB       -44.6070  -10.2640   56.8500 C.3   147  VAL147      0.0252
     11  CG1      -43.6160   -9.7700   55.8130 C.3   147  VAL147      0.0019
     12  CG2      -45.2560   -9.0780   57.5700 C.3   147  VAL147      0.0019
     13  N        -42.4310  -14.2090   52.9310 N.3   149  LYS149     -0.1245
     14  CA       -41.1640  -13.8560   52.3060 C.3   149  LYS149      0.1561
     15  C        -40.5130  -15.0650   51.6590 C.2   149  LYS149      0.2260
     16  O        -40.2640  -16.0790   52.3310 O.2   149  LYS149     -0.2867
     17  CB       -40.1870  -13.3100   53.3480 C.3   149  LYS149      0.0271
     18  CG       -40.5630  -11.9920   53.9410 C.3   149  LYS149      0.0035
     19  CD       -39.4990  -11.5250   54.9270 C.3   149  LYS149      0.0206
     20  CE       -39.9310  -10.2040   55.5710 C.3   149  LYS149      0.1093
     21  NZ       -39.0340   -9.7170   56.6630 N.3   149  LYS149     -0.1314
     22  N        -41.3170  -10.3240   48.7410 N.3   156  VAL156     -0.1231
     23  CA       -41.8570  -10.1230   50.0730 C.3   156  VAL156      0.1692
     24  C        -43.2700   -9.5870   49.9150 C.2   156  VAL156      0.2592
     25  O        -43.4650   -8.5540   49.2900 O.2   156  VAL156     -0.2718
     26  CB       -41.0610   -9.0410   50.8110 C.3   156  VAL156      0.0266
     27  CG1      -41.8400   -8.5210   52.0260 C.3   156  VAL156      0.0020
     28  CG2      -39.6730   -9.5520   51.1950 C.3   156  VAL156      0.0020
     29  N        -44.2710  -10.2670   50.4570 N.am  157  ILE157     -0.1966
     30  CA       -45.6210   -9.7130   50.3970 C.3   157  ILE157      0.1727
     31  C        -46.1010   -9.3870   51.8020 C.2   157  ILE157      0.2616
     32  O        -46.0240  -10.2270   52.6880 O.2   157  ILE157     -0.2715
     33  CB       -46.6000  -10.6790   49.7060 C.3   157  ILE157      0.0290
     34  CG1      -46.0780  -11.0480   48.3150 C.3   157  ILE157      0.0022
     35  CG2      -48.0130  -10.0700   49.6110 C.3   157  ILE157      0.0023
     36  CD1      -47.0080  -11.9570   47.5380 C.3   157  ILE157      0.0001
     37  N        -46.5560   -8.1610   52.0290 N.am  158  VAL158     -0.1977
     38  CA       -47.1310   -7.8370   53.3210 C.3   158  VAL158      0.1596
     39  C        -48.6080   -7.9150   53.1270 C.2   158  VAL158      0.2287
     40  O        -49.2000   -6.9890   52.5950 O.2   158  VAL158     -0.2864
     41  CB       -46.8040   -6.4010   53.7980 C.3   158  VAL158      0.0276
     42  CG1      -47.6940   -6.0170   54.9950 C.3   158  VAL158      0.0022
     43  CG2      -45.3100   -6.2400   54.1330 C.3   158  VAL158      0.0022
     44  N        -52.6390   -8.2210   54.3100 N.3   160  LYS160     -0.1245
     45  CA       -53.4420   -7.4810   55.2770 C.3   160  LYS160      0.1561
     46  C        -54.5760   -8.3260   55.8440 C.2   160  LYS160      0.2260
     47  O        -55.3340   -7.8690   56.6990 O.2   160  LYS160     -0.2867
     48  CB       -54.0480   -6.2320   54.6290 C.3   160  LYS160      0.0271
     49  CG       -53.0680   -5.3110   53.9000 C.3   160  LYS160      0.0035
     50  CD       -53.8490   -4.2390   53.1370 C.3   160  LYS160      0.0206
     51  CE       -53.4060   -4.1620   51.6700 C.3   160  LYS160      0.1093
     52  NZ       -51.9160   -4.2200   51.5510 N.3   160  LYS160     -0.1314
     53  N        -43.7810  -14.3420   58.8270 N.3   184  GLU184     -0.1231
     54  CA       -43.4950  -13.6270   60.0640 C.3   184  GLU184      0.1699
     55  C        -44.5290  -12.5820   60.4330 C.2   184  GLU184      0.2592
     56  O        -45.3440  -12.1520   59.6120 O.2   184  GLU184     -0.2718
     57  CB       -42.0930  -13.0210   60.0380 C.3   184  GLU184      0.0402
     58  CG       -41.8980  -11.7840   59.1580 C.3   184  GLU184      0.1161
     59  CD       -40.4530  -11.2420   59.2370 C.2   184  GLU184      0.3649
     60  OE1      -39.5240  -12.0610   59.4600 O.co2 184  GLU184     -0.2457
     61  OE2      -40.2580  -10.0040   59.0910 O.co2 184  GLU184     -0.2457
     62  N        -44.4790  -12.1880   61.6960 N.am  185  GLU185     -0.1966
     63  CA       -45.4160  -11.2480   62.2800 C.3   185  GLU185      0.1733
     64  C        -45.3180   -9.8300   61.6960 C.2   185  GLU185      0.2616
     65  O        -44.2520   -9.3600   61.3570 O.2   185  GLU185     -0.2715
     66  CB       -45.1720  -11.2030   63.7800 C.3   185  GLU185      0.0429
     67  CG       -45.9900  -10.1610   64.5130 C.3   185  GLU185      0.1163
     68  CD       -45.6920  -10.1640   65.9870 C.2   185  GLU185      0.3649
     69  OE1      -44.5190  -10.4520   66.3480 O.co2 185  GLU185     -0.2457
     70  OE2      -46.6250   -9.8810   66.7640 O.co2 185  GLU185     -0.2457
     71  N        -46.4480   -9.1550   61.5880 N.am  186  LEU186     -0.1963
     72  CA       -46.4700   -7.8570   60.9780 C.3   186  LEU186      0.1728
     73  C        -46.3090   -6.8450   62.0920 C.2   186  LEU186      0.2616
     74  O        -47.2130   -6.6710   62.9250 O.2   186  LEU186     -0.2715
     75  CB       -47.7890   -7.6470   60.2210 C.3   186  LEU186      0.0311
     76  CG       -48.1030   -6.2520   59.6510 C.3   186  LEU186      0.0022
     77  CD1      -47.2320   -5.9590   58.4600 C.3   186  LEU186      0.0001
     78  CD2      -49.5740   -6.1370   59.2830 C.3   186  LEU186      0.0001
     79  N        -45.1470   -6.1990   62.1100 N.am  187  LEU187     -0.1977
     80  CA       -44.8390   -5.1790   63.1000 C.3   187  LEU187      0.1596
     81  C        -45.3150   -3.8360   62.6060 C.2   187  LEU187      0.2287
     82  O        -45.4280   -3.6190   61.3970 O.2   187  LEU187     -0.2864
     83  CB       -43.3360   -5.0800   63.2500 C.3   187  LEU187      0.0297
     84  CG       -42.6900   -6.4240   63.4920 C.3   187  LEU187      0.0022
     85  CD1      -41.2010   -6.2510   63.5470 C.3   187  LEU187      0.0001
     86  CD2      -43.2330   -6.9920   64.8100 C.3   187  LEU187      0.0001
     87  N        -39.3960    2.3360   59.8510 N.3   191  GLU191     -0.1245
     88  CA       -38.2400    1.6250   59.3180 C.3   191  GLU191      0.1567
     89  C        -37.0270    2.5580   59.1650 C.2   191  GLU191      0.2260
     90  O        -37.1860    3.6840   58.7010 O.2   191  GLU191     -0.2867
     91  CB       -38.5750    1.0950   57.9380 C.3   191  GLU191      0.0388
     92  CG       -39.6530    0.0430   57.9130 C.3   191  GLU191      0.1160
     93  CD       -39.6360   -0.7290   56.6000 C.2   191  GLU191      0.3649
     94  OE1      -38.5190   -1.0820   56.1290 O.co2 191  GLU191     -0.2457
     95  OE2      -40.7330   -0.9750   56.0410 O.co2 191  GLU191     -0.2457
     96  N        -41.4210    4.0170   46.9730 N.3   214  ARG214     -0.1245
     97  CA       -42.5660    4.3540   46.1430 C.3   214  ARG214      0.1563
     98  C        -42.2440    5.3870   45.0730 C.2   214  ARG214      0.2260
     99  O        -41.4500    6.3120   45.2960 O.2   214  ARG214     -0.2867
    100  CB       -43.6570    4.9090   47.0330 C.3   214  ARG214      0.0307
    101  CG       -44.2140    3.8830   47.9910 C.3   214  ARG214      0.0489
    102  CD       -45.0070    2.8460   47.2380 C.3   214  ARG214      0.2205
    103  NE       -45.3870    1.7440   48.1070 N.pl3 214  ARG214     -0.0865
    104  CZ       -46.0070    0.6430   47.6940 C.cat 214  ARG214      0.5346
    105  NH1      -46.3320    0.4850   46.4060 N.pl3 214  ARG214      0.1354
    106  NH2      -46.2920   -0.3090   48.5760 N.pl3 214  ARG214      0.1354
    107  N        -43.7210    0.0920   43.7260 N.3   223  ASN223     -0.1240
    108  CA       -42.3920    0.1400   44.3030 C.3   223  ASN223      0.1653
    109  C        -41.2900    0.2500   43.2820 C.2   223  ASN223      0.2266
    110  O        -41.4460   -0.1680   42.1350 O.2   223  ASN223     -0.2867
    111  CB       -42.1470   -1.0650   45.1860 C.3   223  ASN223      0.1155
    112  CG       -42.6610   -0.8380   46.5710 C.2   223  ASN223      0.2627
    113  OD1      -43.2530   -1.7220   47.1780 O.2   223  ASN223     -0.2716
    114  ND2      -42.4890    0.3810   47.0670 N.am  223  ASN223     -0.0877
    115  N        -37.1100   -2.0650   62.2650 N.3   272  MET272     -0.1245
    116  CA       -38.4080   -1.4970   62.5410 C.3   272  MET272      0.1570
    117  C        -38.3580   -0.9470   63.9660 C.2   272  MET272      0.2261
    118  O        -37.9600   -1.6440   64.9100 O.2   272  MET272     -0.2867
    119  CB       -39.4440   -2.6010   62.4110 C.3   272  MET272      0.0387
    120  CG       -40.8800   -2.1740   62.6230 C.3   272  MET272      0.0595
    121  SD       -41.4490   -1.0870   61.3300 S.3   272  MET272     -0.1393
    122  CE       -42.2920   -2.1970   60.2180 C.3   272  MET272      0.0692
    123  N        -35.5830   -6.4410   60.4420 N.3   281  LEU281     -0.1231
    124  CA       -36.4550   -6.8550   59.3640 C.3   281  LEU281      0.1693
    125  C        -35.7130   -7.7480   58.3890 C.2   281  LEU281      0.2591
    126  O        -36.2640   -8.7020   57.9000 O.2   281  LEU281     -0.2718
    127  CB       -37.0140   -5.6280   58.6330 C.3   281  LEU281      0.0284
    128  CG       -38.1180   -4.8630   59.3690 C.3   281  LEU281      0.0019
    129  CD1      -38.7460   -3.8660   58.4280 C.3   281  LEU281      0.0001
    130  CD2      -39.1850   -5.8350   59.9040 C.3   281  LEU281      0.0001
    131  N        -34.4650   -7.4100   58.1000 N.am  282  GLU282     -0.1979
    132  CA       -33.6410   -8.1500   57.1690 C.3   282  GLU282      0.1602
    133  C        -32.2240   -7.6510   57.3270 C.2   282  GLU282      0.2287
    134  O        -31.9660   -6.6000   57.9130 O.2   282  GLU282     -0.2864
    135  CB       -34.0630   -7.8270   55.7510 C.3   282  GLU282      0.0415
    136  CG       -34.2050   -6.3080   55.5540 C.3   282  GLU282      0.1163
    137  CD       -34.1720   -5.8720   54.1010 C.2   282  GLU282      0.3649
    138  OE1      -34.2840   -6.7390   53.2030 O.co2 282  GLU282     -0.2457
    139  OE2      -34.0170   -4.6530   53.8560 O.co2 282  GLU282     -0.2457
@<TRIPOS>BOND
     1   110   109    2
     2   109   108    1
     3   107   108    1
     4   108   111    1
     5    98    99    2
     6    98    97    1
     7   111   112    1
     8    97    96    1
     9    97   100    1
    10   105   104    1
    11   112   114   am
    12   112   113    2
    13   100   101    1
    14   102   101    1
    15   102   103    1
    16    36    34    1
    17   104   103    2
    18   104   106    1
    19    34    33    1
    20    22    23    1
    21    25    24    2
    22    35    33    1
    23    33    30    1
    24    24    23    1
    25    24    29   am
    26    23    26    1
    27    30    29    1
    28    30    31    1
    29    26    28    1
    30    26    27    1
    31    52    51    1
    32    15    14    1
    33    15    16    2
    34    51    50    1
    35    31    37   am
    36    31    32    2
    37    37    38    1
    38    14    13    1
    39    14    17    1
    40    40    39    2
    41    39    38    1
    42    50    49    1
    43   138   137   ar
    44    38    41    1
    45    17    18    1
    46    41    43    1
    47    41    42    1
    48   139   137   ar
    49    49    48    1
    50    18    19    1
    51   137   136    1
    52    44    45    1
    53    48    45    1
    54    19    20    1
    55    45    46    1
    56   136   135    1
    57    20    21    1
    58     8     7    1
    59     8     9    2
    60   135   132    1
    61    11    10    1
    62    46    47    2
    63    95    93   ar
    64    94    93   ar
    65     7    10    1
    66     7     6    1
    67    93    92    1
    68    10    12    1
    69   132   133    1
    70   132   131    1
    71   133   134    2
    72   126   125    2
    73    92    91    1
    74    91    88    1
    75   131   125   am
    76   125   124    1
    77   129   128    1
    78    77    76    1
    79   127   124    1
    80   127   128    1
    81    90    89    2
    82    53    54    1
    83    61    59   ar
    84    58    59    1
    85    58    57    1
    86    89    88    1
    87    59    60   ar
    88    78    76    1
    89    88    87    1
    90   124   123    1
    91   128   130    1
    92    56    55    2
    93    76    75    1
    94    57    54    1
    95    54    55    1
    96   122   121    1
    97    75    72    1
    98    55    62   am
    99    72    71    1
   100    72    73    1
   101   121   120    1
   102    65    64    2
   103    82    81    2
   104    71    64   am
   105    62    63    1
   106    64    63    1
   107    73    79   am
   108    73    74    2
   109    79    80    1
   110   115   116    1
   111    63    66    1
   112   119   116    1
   113   119   120    1
   114   116   117    1
   115    81    80    1
   116     5     2    1
   117    80    83    1
   118    83    84    1
   119    84    85    1
   120    84    86    1
   121    66    67    1
   122   117   118    2
   123     4     3    2
   124     1     2    1
   125     2     3    1
   126    67    68    1
   127    68    69   ar
   128    68    70   ar
