@<TRIPOS>MOLECULE
tmp/2qkmB00.pdb
 93 85 0 0 0
SMALL
GASTEIGER

@<TRIPOS>ATOM
      1  N        -15.6310  -42.4170   33.5120 N.3    96  ILE96      -0.1245
      2  CA       -15.8130  -43.2500   34.6990 C.3    96  ILE96       0.1561
      3  C        -15.5870  -42.3870   35.9470 C.2    96  ILE96       0.2260
      4  O        -14.5550  -41.7220   36.0640 O.2    96  ILE96      -0.2867
      5  CB       -14.8530  -44.4580   34.6620 C.3    96  ILE96       0.0252
      6  CG1      -15.3970  -45.5190   33.7180 C.3    96  ILE96       0.0019
      7  CG2      -14.6610  -45.0740   36.0260 C.3    96  ILE96       0.0019
      8  CD1      -14.3190  -46.4830   33.2140 C.3    96  ILE96       0.0001
      9  N        -14.8030  -41.6930   39.9380 N.3    98  VAL98      -0.1245
     10  CA       -13.9170  -42.2900   40.9170 C.3    98  VAL98       0.1561
     11  C        -14.0940  -41.4380   42.1760 C.2    98  VAL98       0.2260
     12  O        -13.9910  -40.2080   42.1090 O.2    98  VAL98      -0.2867
     13  CB       -12.4330  -42.2630   40.4010 C.3    98  VAL98       0.0252
     14  CG1      -11.4210  -42.5890   41.5020 C.3    98  VAL98       0.0019
     15  CG2      -12.2440  -43.2080   39.1970 C.3    98  VAL98       0.0019
     16  N          0.6800  -49.2590   46.6130 N.3   116  GLY116     -0.1225
     17  CA         0.7680  -50.6630   46.2200 C.3   116  GLY116      0.1811
     18  C          2.1990  -51.1240   46.3880 C.2   116  GLY116      0.2280
     19  O          3.0690  -50.3560   46.7830 O.2   116  GLY116     -0.2866
     20  N          6.7080  -49.7070   40.6330 N.3   120  SER120     -0.1202
     21  CA         5.9900  -49.0220   39.5710 C.3   120  SER120      0.2020
     22  C          4.6910  -48.3740   40.0840 C.2   120  SER120      0.2619
     23  O          3.9810  -47.7110   39.3250 O.2   120  SER120     -0.2717
     24  CB         5.6930  -50.0240   38.4500 C.3   120  SER120      0.2103
     25  OG         4.3910  -49.8720   37.9320 O.3   120  SER120     -0.2182
     26  N          4.3700  -48.5640   41.3580 N.am  121  SER121     -0.1937
     27  CA         3.1650  -47.9630   41.9310 C.3   121  SER121      0.2055
     28  C          3.5790  -46.8030   42.8010 C.2   121  SER121      0.2643
     29  O          4.3540  -46.9740   43.7620 O.2   121  SER121     -0.2714
     30  CB         2.3580  -48.9700   42.7790 C.3   121  SER121      0.2130
     31  OG         1.6580  -49.9140   41.9710 O.3   121  SER121     -0.2179
     32  N          3.0810  -45.6210   42.4740 N.am  122  GLY122     -0.1954
     33  CA         3.3210  -44.4880   43.3260 C.3   122  GLY122      0.1869
     34  C          2.1980  -44.3410   44.3240 C.2   122  GLY122      0.2309
     35  O          1.0600  -44.6640   44.0110 O.2   122  GLY122     -0.2863
     36  N         -0.7670  -42.7100   46.5550 N.3   124  GLY124     -0.1225
     37  CA        -1.9600  -42.0130   46.0850 C.3   124  GLY124      0.1811
     38  C         -3.0120  -41.8840   47.1660 C.2   124  GLY124      0.2280
     39  O         -2.9590  -42.5680   48.1920 O.2   124  GLY124     -0.2866
     40  N         -9.0480  -44.0420   46.8120 N.3   127  LYS127     -0.1231
     41  CA       -10.0410  -43.7760   45.7820 C.3   127  LYS127      0.1693
     42  C        -10.3680  -45.0500   44.9620 C.2   127  LYS127      0.2593
     43  O         -9.5570  -45.9840   44.8750 O.2   127  LYS127     -0.2718
     44  CB        -9.5470  -42.6380   44.8680 C.3   127  LYS127      0.0285
     45  CG        -8.5130  -43.0640   43.8130 C.3   127  LYS127      0.0035
     46  CD        -7.8610  -41.8900   43.1020 C.3   127  LYS127      0.0206
     47  CE        -6.5920  -41.4390   43.8260 C.3   127  LYS127      0.1093
     48  NZ        -5.4940  -42.4780   43.9410 N.3   127  LYS127     -0.1314
     49  N        -11.5510  -45.0790   44.3560 N.am  128  GLY128     -0.1942
     50  CA       -11.9400  -46.1900   43.5260 C.3   128  GLY128      0.2014
     51  C        -13.2100  -45.9210   42.7620 C.2   128  GLY128      0.2638
     52  O        -13.8350  -44.8710   42.9230 O.2   128  GLY128     -0.2714
     53  N        -13.5840  -46.8930   41.9370 N.am  129  LYS129     -0.1977
     54  CA       -14.7350  -46.8330   41.0530 C.3   129  LYS129      0.1596
     55  C        -16.0250  -46.8770   41.8670 C.2   129  LYS129      0.2287
     56  O        -15.9950  -47.1560   43.0530 O.2   129  LYS129     -0.2864
     57  CB       -14.6620  -48.0430   40.1240 C.3   129  LYS129      0.0298
     58  CG       -15.0560  -47.7790   38.6780 C.3   129  LYS129      0.0038
     59  CD       -14.6410  -48.9420   37.7230 C.3   129  LYS129      0.0206
     60  CE       -15.4570  -50.2360   37.9570 C.3   129  LYS129      0.1093
     61  NZ       -14.9200  -51.3780   37.1350 N.3   129  LYS129     -0.1314
     62  N         -6.7200  -37.6890   33.6570 N.3   167  ARG167     -0.1245
     63  CA        -6.5430  -38.9320   32.9220 C.3   167  ARG167      0.1563
     64  C         -7.8610  -39.6610   32.5620 C.2   167  ARG167      0.2260
     65  O         -7.9530  -40.8830   32.7130 O.2   167  ARG167     -0.2867
     66  CB        -5.5750  -39.8570   33.6700 C.3   167  ARG167      0.0307
     67  CG        -5.0300  -40.9530   32.7980 C.3   167  ARG167      0.0489
     68  CD        -3.8770  -41.6950   33.4390 C.3   167  ARG167      0.2205
     69  NE        -3.0080  -42.2460   32.3980 N.pl3 167  ARG167     -0.0865
     70  CZ        -2.1800  -43.2700   32.5620 C.cat 167  ARG167      0.5346
     71  NH1       -2.0790  -43.8780   33.7420 N.pl3 167  ARG167      0.1354
     72  NH2       -1.4400  -43.6760   31.5430 N.pl3 167  ARG167      0.1354
     73  N        -10.8720  -39.7110   33.8810 N.3   169  GLN169     -0.1245
     74  CA       -11.7910  -40.0350   34.9810 C.3   169  GLN169      0.1566
     75  C        -12.3490  -38.7640   35.6580 C.2   169  GLN169      0.2260
     76  O        -11.7100  -37.6980   35.6310 O.2   169  GLN169     -0.2867
     77  CB       -11.0690  -40.8770   36.0260 C.3   169  GLN169      0.0367
     78  CG       -10.6060  -42.2330   35.5290 C.3   169  GLN169      0.0905
     79  CD        -9.3840  -42.7570   36.2900 C.2   169  GLN169      0.2608
     80  OE1       -9.2800  -42.6350   37.5200 O.2   169  GLN169     -0.2717
     81  NE2       -8.4470  -43.3410   35.5490 N.am  169  GLN169     -0.0878
     82  N          1.0590  -41.0310   42.5120 N.3   220  TYR220     -0.1241
     83  CA         0.1290  -41.1630   41.4070 C.3   220  TYR220      0.1605
     84  C         -0.6920  -39.9050   41.1730 C.2   220  TYR220      0.2264
     85  O         -0.1640  -38.9170   40.6760 O.2   220  TYR220     -0.2867
     86  CB        -0.7100  -42.4350   41.4480 C.3   220  TYR220      0.0534
     87  CG        -1.3760  -42.7200   40.1260 C.ar  220  TYR220     -0.0201
     88  CD1       -0.6390  -42.7560   38.9480 C.ar  220  TYR220     -0.0009
     89  CD2       -2.7570  -42.9140   40.0500 C.ar  220  TYR220     -0.0009
     90  CE1       -1.2550  -42.9900   37.7240 C.ar  220  TYR220      0.0417
     91  CE2       -3.3860  -43.1490   38.8320 C.ar  220  TYR220      0.0417
     92  CZ        -2.6310  -43.1930   37.6740 C.ar  220  TYR220      0.1957
     93  OH        -3.2570  -43.4400   36.4720 O.3   220  TYR220     -0.2866
@<TRIPOS>BOND
     1    72    70    1
     2    69    70    2
     3    69    68    1
     4    64    65    2
     5    64    63    1
     6    70    71    1
     7    67    68    1
     8    67    66    1
     9    63    62    1
    10    63    66    1
    11     8     6    1
    12     1     2    1
    13     6     5    1
    14    73    74    1
    15     5     2    1
    16     5     7    1
    17     2     3    1
    18    74    75    1
    19    74    77    1
    20    78    77    1
    21    78    79    1
    22    81    79   am
    23    76    75    2
    24     3     4    2
    25    79    80    2
    26    93    92    1
    27    61    60    1
    28    92    90   ar
    29    92    91   ar
    30    59    60    1
    31    59    58    1
    32    90    88   ar
    33    25    24    1
    34    24    21    1
    35    58    57    1
    36    91    89   ar
    37    88    87   ar
    38    15    13    1
    39    23    22    2
    40    21    22    1
    41    21    20    1
    42     9    10    1
    43    89    87   ar
    44    22    26   am
    45    57    54    1
    46    87    86    1
    47    13    10    1
    48    13    14    1
    49    85    84    2
    50    10    11    1
    51    54    55    1
    52    54    53    1
    53    84    83    1
    54    26    27    1
    55    83    86    1
    56    83    82    1
    57    55    56    2
    58    27    30    1
    59    27    28    1
    60    53    51   am
    61    31    30    1
    62    12    11    2
    63    32    28   am
    64    32    33    1
    65    51    52    2
    66    51    50    1
    67    28    29    2
    68    46    45    1
    69    46    47    1
    70    33    34    1
    71    50    49    1
    72    45    44    1
    73    47    48    1
    74    35    34    2
    75    49    42   am
    76    44    41    1
    77    43    42    2
    78    42    41    1
    79    41    40    1
    80    37    36    1
    81    37    38    1
    82    17    18    1
    83    17    16    1
    84    18    19    2
    85    38    39    2
