@<TRIPOS>MOLECULE
tmp/2qknA05.pdb
 149 143 0 0 0
SMALL
GASTEIGER

@<TRIPOS>ATOM
      1  N         36.1070    6.0850    8.9260 N.3   137  ASP137     -0.1225
      2  CA        36.3170    7.5140    8.7380 C.3   137  ASP137      0.1805
      3  C         34.9940    8.2670    8.5770 C.2   137  ASP137      0.2597
      4  O         34.8820    9.4310    8.9620 O.2   137  ASP137     -0.2718
      5  CB        37.2020    7.7610    7.5070 C.3   137  ASP137      0.1424
      6  CG        38.5670    7.1040    7.6270 C.2   137  ASP137      0.3668
      7  OD1       39.0280    6.8790    8.7660 O.co2 137  ASP137     -0.2456
      8  OD2       39.1880    6.8260    6.5820 O.co2 137  ASP137     -0.2456
      9  N         33.9950    7.5840    8.0220 N.am  138  TYR138     -0.1976
     10  CA        32.6740    8.1580    7.7610 C.3   138  TYR138      0.1639
     11  C         31.6530    7.4450    8.6480 C.2   138  TYR138      0.2290
     12  O         31.5260    6.2210    8.5990 O.2   138  TYR138     -0.2864
     13  CB        32.3580    7.9550    6.2810 C.3   138  TYR138      0.0560
     14  CG        31.0330    8.4760    5.7890 C.ar  138  TYR138     -0.0198
     15  CD1       30.7920    9.8480    5.6650 C.ar  138  TYR138     -0.0009
     16  CD2       30.0310    7.5900    5.3900 C.ar  138  TYR138     -0.0009
     17  CE1       29.5780   10.3210    5.1440 C.ar  138  TYR138      0.0417
     18  CE2       28.8260    8.0450    4.8750 C.ar  138  TYR138      0.0417
     19  CZ        28.6020    9.4080    4.7510 C.ar  138  TYR138      0.1957
     20  OH        27.4060    9.8410    4.2270 O.3   138  TYR138     -0.2866
     21  N         37.2730   -0.3030    9.1300 N.3   152  ILE152     -0.1245
     22  CA        38.5830    0.2030    9.5160 C.3   152  ILE152      0.1561
     23  C         38.7000    1.7200    9.5360 C.2   152  ILE152      0.2260
     24  O         37.9810    2.4320    8.8280 O.2   152  ILE152     -0.2867
     25  CB        39.6890   -0.3160    8.5750 C.3   152  ILE152      0.0252
     26  CG1       39.3690    0.1010    7.1280 C.3   152  ILE152      0.0019
     27  CG2       39.8410   -1.8300    8.7360 C.3   152  ILE152      0.0019
     28  CD1       40.4390   -0.2660    6.1120 C.3   152  ILE152      0.0001
     29  N         34.2870   14.0100    8.6130 N.3   340  VAL340     -0.1245
     30  CA        33.9980   13.8660    7.1840 C.3   340  VAL340      0.1561
     31  C         32.6300   14.3970    6.7470 C.2   340  VAL340      0.2260
     32  O         32.4440   14.7530    5.5820 O.2   340  VAL340     -0.2867
     33  CB        34.1220   12.3850    6.7450 C.3   340  VAL340      0.0252
     34  CG1       33.8150   12.2430    5.2630 C.3   340  VAL340      0.0019
     35  CG2       35.5290   11.8780    7.0270 C.3   340  VAL340      0.0019
     36  N         32.5160   17.5690    4.8150 N.3   343  GLU343     -0.1245
     37  CA        32.9980   17.4200    3.4500 C.3   343  GLU343      0.1567
     38  C         31.8660   16.9100    2.5550 C.2   343  GLU343      0.2260
     39  O         31.7870   17.2590    1.3760 O.2   343  GLU343     -0.2867
     40  CB        34.1780   16.4440    3.4250 C.3   343  GLU343      0.0388
     41  CG        35.0970   16.5970    2.2240 C.3   343  GLU343      0.1160
     42  CD        36.3010   15.6720    2.2940 C.2   343  GLU343      0.3649
     43  OE1       37.0380   15.7270    3.3020 O.co2 343  GLU343     -0.2457
     44  OE2       36.5110   14.8910    1.3400 O.co2 343  GLU343     -0.2457
     45  N         30.4820   18.9420   -0.7260 N.3   347  LEU347     -0.1245
     46  CA        30.5080   18.2620   -2.0150 C.3   347  LEU347      0.1561
     47  C         29.1240   18.1120   -2.6450 C.2   347  LEU347      0.2260
     48  O         28.9740   18.2130   -3.8620 O.2   347  LEU347     -0.2867
     49  CB        31.1540   16.8840   -1.8680 C.3   347  LEU347      0.0270
     50  CG        32.6650   16.8750   -1.6240 C.3   347  LEU347      0.0019
     51  CD1       33.1440   15.4450   -1.4010 C.3   347  LEU347      0.0001
     52  CD2       33.3790   17.5040   -2.8210 C.3   347  LEU347      0.0001
     53  N         28.8460   15.0990   -5.0070 N.3   353  TRP353     -0.1241
     54  CA        28.7610   13.9810   -4.0790 C.3   353  TRP353      0.1605
     55  C         28.0770   12.8130   -4.7690 C.2   353  TRP353      0.2264
     56  O         28.5550   11.6810   -4.7170 O.2   353  TRP353     -0.2867
     57  CB        27.9810   14.3790   -2.8240 C.3   353  TRP353      0.0550
     58  CG        27.7880   13.2380   -1.8690 C.ar  353  TRP353      0.0003
     59  CD1       26.6520   12.5030   -1.6870 C.ar  353  TRP353      0.0946
     60  CD2       28.7710   12.6850   -0.9830 C.ar  353  TRP353      0.0152
     61  NE1       26.8660   11.5270   -0.7410 N.ar  353  TRP353     -0.2442
     62  CE2       28.1580   11.6170   -0.2940 C.ar  353  TRP353      0.0810
     63  CE3       30.1110   12.9900   -0.7060 C.ar  353  TRP353      0.0012
     64  CZ2       28.8400   10.8490    0.6590 C.ar  353  TRP353      0.0191
     65  CZ3       30.7910   12.2260    0.2410 C.ar  353  TRP353      0.0001
     66  CH2       30.1530   11.1690    0.9110 C.ar  353  TRP353      0.0015
     67  N         36.2630    3.8980   -6.5940 N.3   359  TRP359     -0.1241
     68  CA        37.2490    3.7580   -5.5280 C.3   359  TRP359      0.1605
     69  C         38.0840    2.4830   -5.6130 C.2   359  TRP359      0.2264
     70  O         37.6000    1.4230   -6.0220 O.2   359  TRP359     -0.2867
     71  CB        36.5490    3.8050   -4.1600 C.3   359  TRP359      0.0550
     72  CG        36.0240    5.1600   -3.7620 C.ar  359  TRP359      0.0003
     73  CD1       36.0700    6.3110   -4.4960 C.ar  359  TRP359      0.0946
     74  CD2       35.4370    5.5130   -2.5010 C.ar  359  TRP359      0.0152
     75  NE1       35.5600    7.3600   -3.7700 N.ar  359  TRP359     -0.2442
     76  CE2       35.1650    6.8990   -2.5410 C.ar  359  TRP359      0.0810
     77  CE3       35.1220    4.7930   -1.3370 C.ar  359  TRP359      0.0012
     78  CZ2       34.5940    7.5820   -1.4610 C.ar  359  TRP359      0.0191
     79  CZ3       34.5520    5.4750   -0.2580 C.ar  359  TRP359      0.0001
     80  CH2       34.2960    6.8570   -0.3310 C.ar  359  TRP359      0.0015
     81  N         40.3120    0.1900   -3.1430 N.3   361  ASN361     -0.1240
     82  CA        40.6720   -0.0540   -1.7490 C.3   361  ASN361      0.1653
     83  C         41.3570   -1.3900   -1.6260 C.2   361  ASN361      0.2266
     84  O         40.8760   -2.3850   -2.1670 O.2   361  ASN361     -0.2867
     85  CB        39.4240   -0.0630   -0.8740 C.3   361  ASN361      0.1155
     86  CG        38.6570    1.2430   -0.9390 C.2   361  ASN361      0.2627
     87  OD1       37.7540    1.4120   -1.7600 O.2   361  ASN361     -0.2716
     88  ND2       39.0100    2.1680   -0.0650 N.am  361  ASN361     -0.0877
     89  N         40.7130   11.9580   -1.8650 N.3   389  PRO389     -0.2116
     90  CA        41.9300   11.7220   -1.0910 C.3   389  PRO389      0.1372
     91  C         42.5750   10.3600   -1.3540 C.2   389  PRO389      0.2244
     92  O         41.9050    9.4070   -1.7630 O.2   389  PRO389     -0.2868
     93  CB        41.4490   11.8840    0.3490 C.3   389  PRO389      0.0268
     94  CG        40.0540   11.3350    0.2890 C.3   389  PRO389      0.0207
     95  CD        39.5140   11.9230   -1.0070 C.3   389  PRO389      0.0892
     96  N         44.4760    7.7430    0.7280 N.3   391  ILE391     -0.1245
     97  CA        44.7540    7.3520    2.1080 C.3   391  ILE391      0.1561
     98  C         45.6380    6.1170    2.2360 C.2   391  ILE391      0.2260
     99  O         45.3840    5.0860    1.6110 O.2   391  ILE391     -0.2867
    100  CB        43.4240    7.1090    2.8450 C.3   391  ILE391      0.0252
    101  CG1       42.4880    8.3000    2.5910 C.3   391  ILE391      0.0019
    102  CG2       43.6640    6.9280    4.3330 C.3   391  ILE391      0.0019
    103  CD1       41.0890    8.1450    3.1720 C.3   391  ILE391      0.0001
    104  N         47.9050    3.8830    5.3620 N.3   393  TYR393     -0.1241
    105  CA        48.3170    3.6850    6.7580 C.3   393  TYR393      0.1605
    106  C         48.4270    2.2080    7.1330 C.2   393  TYR393      0.2264
    107  O         47.6770    1.3680    6.6340 O.2   393  TYR393     -0.2867
    108  CB        47.3860    4.4310    7.7320 C.3   393  TYR393      0.0534
    109  CG        45.9440    3.9880    7.7340 C.ar  393  TYR393     -0.0201
    110  CD1       45.5200    2.9210    8.5340 C.ar  393  TYR393     -0.0009
    111  CD2       44.9870    4.6490    6.9450 C.ar  393  TYR393     -0.0009
    112  CE1       44.1760    2.5280    8.5550 C.ar  393  TYR393      0.0417
    113  CE2       43.6510    4.2610    6.9560 C.ar  393  TYR393      0.0417
    114  CZ        43.2490    3.2050    7.7630 C.ar  393  TYR393      0.1957
    115  OH        41.9220    2.8350    7.7970 O.3   393  TYR393     -0.2866
    116  N         43.5770    3.3520    0.3420 N.3   418  SER418     -0.1217
    117  CA        42.2770    3.7820   -0.1620 C.3   418  SER418      0.1889
    118  C         42.3900    5.0030   -1.0720 C.2   418  SER418      0.2288
    119  O         42.6460    6.1260   -0.6100 O.2   418  SER418     -0.2866
    120  CB        41.3260    4.0990    1.0010 C.3   418  SER418      0.2089
    121  OG        40.8720    2.9110    1.6460 O.3   418  SER418     -0.2183
    122  N         40.3290    7.2160   -3.0760 N.3   420  LEU420     -0.1245
    123  CA        38.9410    7.6150   -3.2290 C.3   420  LEU420      0.1561
    124  C         38.6800    8.5570   -4.4000 C.2   420  LEU420      0.2260
    125  O         38.3050    9.7180   -4.2180 O.2   420  LEU420     -0.2867
    126  CB        38.4690    8.2360   -1.9170 C.3   420  LEU420      0.0270
    127  CG        38.9010    7.4400   -0.6720 C.3   420  LEU420      0.0019
    128  CD1       38.2970    8.1020    0.5690 C.3   420  LEU420      0.0001
    129  CD2       38.4340    5.9830   -0.7650 C.3   420  LEU420      0.0001
    130  N         39.5730   -4.7180   -0.6940 N.3   453  TYR453     -0.1227
    131  CA        38.6560   -4.4500    0.4010 C.3   453  TYR453      0.1736
    132  C         37.5160   -3.6460   -0.2260 C.2   453  TYR453      0.2595
    133  O         37.7630   -2.7460   -1.0350 O.2   453  TYR453     -0.2718
    134  CB        39.3570   -3.6420    1.5160 C.3   453  TYR453      0.0548
    135  CG        38.4590   -3.3040    2.7000 C.ar  453  TYR453     -0.0200
    136  CD1       37.7490   -4.3030    3.3710 C.ar  453  TYR453     -0.0009
    137  CD2       38.2790   -1.9800    3.1130 C.ar  453  TYR453     -0.0009
    138  CE1       36.8730   -3.9940    4.4150 C.ar  453  TYR453      0.0417
    139  CE2       37.4090   -1.6610    4.1540 C.ar  453  TYR453      0.0417
    140  CZ        36.7020   -2.6720    4.7990 C.ar  453  TYR453      0.1957
    141  OH        35.7950   -2.3600    5.7990 O.3   453  TYR453     -0.2866
    142  N         36.2770   -4.0060    0.1130 N.am  454  LEU454     -0.1980
    143  CA        35.0920   -3.3190   -0.4020 C.3   454  LEU454      0.1596
    144  C         34.8180   -3.5720   -1.8790 C.2   454  LEU454      0.2287
    145  O         33.9280   -2.9510   -2.4670 O.2   454  LEU454     -0.2864
    146  CB        35.2070   -1.8110   -0.1660 C.3   454  LEU454      0.0297
    147  CG        35.3570   -1.3630    1.2920 C.3   454  LEU454      0.0022
    148  CD1       35.4820    0.1530    1.3380 C.3   454  LEU454      0.0001
    149  CD2       34.1560   -1.8250    2.1100 C.3   454  LEU454      0.0001
@<TRIPOS>BOND
     1    67    68    1
     2    70    69    2
     3    69    68    1
     4    68    71    1
     5    53    54    1
     6    55    56    2
     7    55    54    1
     8    73    75   ar
     9    73    72   ar
    10   124   125    2
    11   124   123    1
    12    71    72    1
    13    54    57    1
    14    48    47    2
    15    75    76   ar
    16    72    74   ar
    17   123   122    1
    18   123   126    1
    19    81    82    1
    20    57    58    1
    21    52    50    1
    22    47    46    1
    23    76    74   ar
    24    76    78   ar
    25    74    77   ar
    26   145   144    2
    27    84    83    2
    28    46    49    1
    29    46    45    1
    30   126   127    1
    31   144   143    1
    32    58    59   ar
    33    58    60   ar
    34    49    50    1
    35    89    90    1
    36    89    95    1
    37    92    91    2
    38    87    86    2
    39    82    83    1
    40    82    85    1
    41    59    61   ar
    42    50    51    1
    43    78    80   ar
    44    91    90    1
    45    77    79   ar
    46    90    93    1
    47   118   119    2
    48   118   117    1
    49   133   132    2
    50    95    94    1
    51    60    63   ar
    52    60    62   ar
    53    86    85    1
    54    86    88   am
    55   129   127    1
    56    61    62   ar
    57    63    65   ar
    58   130   131    1
    59   127   128    1
    60   143   146    1
    61   143   142    1
    62    80    79   ar
    63    62    64   ar
    64   132   142   am
    65   132   131    1
    66   146   147    1
    67   117   116    1
    68   117   120    1
    69    65    66   ar
    70    94    93    1
    71   131   134    1
    72    64    66   ar
    73    96    97    1
    74   120   121    1
    75   147   148    1
    76   147   149    1
    77    44    42   ar
    78    39    38    2
    79   134   135    1
    80    99    98    2
    81    97    98    1
    82    97   100    1
    83    41    42    1
    84    41    40    1
    85    42    43   ar
    86    38    37    1
    87   101   100    1
    88   101   103    1
    89   135   137   ar
    90   135   136   ar
    91   100   102    1
    92   137   139   ar
    93   136   138   ar
    94    40    37    1
    95    37    36    1
    96   139   140   ar
    97    20    19    1
    98   138   140   ar
    99    19    18   ar
   100    19    17   ar
   101   140   141    1
   102    18    16   ar
   103    17    15   ar
   104    34    33    1
   105   104   105    1
   106    16    14   ar
   107    32    31    2
   108    15    14   ar
   109    14    13    1
   110    28    26    1
   111    13    10    1
   112     8     6   ar
   113   107   106    2
   114    33    35    1
   115    33    30    1
   116    31    30    1
   117   105   106    1
   118   105   108    1
   119   111   113   ar
   120   111   109   ar
   121   113   114   ar
   122    26    25    1
   123    30    29    1
   124     5     6    1
   125     5     2    1
   126     6     7   ar
   127   108   109    1
   128   109   110   ar
   129    10     9    1
   130    10    11    1
   131   114   115    1
   132   114   112   ar
   133     9     3   am
   134   110   112   ar
   135    25    27    1
   136    25    22    1
   137     3     2    1
   138     3     4    2
   139    12    11    2
   140     2     1    1
   141    24    23    2
   142    21    22    1
   143    22    23    1
