@<TRIPOS>MOLECULE
tmp/2qkrA00.pdb
 151 144 0 0 0
SMALL
GASTEIGER

@<TRIPOS>ATOM
      1  N         24.7660   -3.5320   10.2310 N.3    13  VAL13      -0.1245
      2  CA        24.5310   -3.5740   11.6830 C.3    13  VAL13       0.1561
      3  C         23.0390   -3.7140   12.0520 C.2    13  VAL13       0.2260
      4  O         22.6270   -3.3470   13.1560 O.2    13  VAL13      -0.2867
      5  CB        25.1430   -2.3230   12.3950 C.3    13  VAL13       0.0252
      6  CG1       26.6590   -2.3410   12.3360 C.3    13  VAL13       0.0019
      7  CG2       24.6100   -1.0260   11.8020 C.3    13  VAL13       0.0019
      8  N         18.6740   -5.0750   11.9780 N.3    15  GLU15      -0.1245
      9  CA        17.7610   -5.9650   12.7190 C.3    15  GLU15       0.1567
     10  C         16.2730   -5.7140   12.3950 C.2    15  GLU15       0.2260
     11  O         15.9280   -4.7390   11.7210 O.2    15  GLU15      -0.2867
     12  CB        18.0210   -5.8570   14.2410 C.3    15  GLU15       0.0388
     13  CG        17.4020   -4.6330   14.9720 C.3    15  GLU15       0.1160
     14  CD        17.8020   -3.2600   14.4010 C.2    15  GLU15       0.3649
     15  OE1       18.9320   -3.0970   13.8790 O.co2  15  GLU15      -0.2457
     16  OE2       16.9690   -2.3290   14.4920 O.co2  15  GLU15      -0.2457
     17  N         19.3840   -1.9190    9.2560 N.3    18  VAL18      -0.1231
     18  CA        20.2340   -0.7330    9.4100 C.3    18  VAL18       0.1692
     19  C         21.6800   -1.0010    8.9930 C.2    18  VAL18       0.2592
     20  O         22.2910   -1.9740    9.4260 O.2    18  VAL18      -0.2718
     21  CB        20.2090   -0.1800   10.8590 C.3    18  VAL18       0.0266
     22  CG1       21.0480    1.0920   10.9660 C.3    18  VAL18       0.0020
     23  CG2       18.7810    0.0870   11.3110 C.3    18  VAL18       0.0020
     24  N         22.2120   -0.1300    8.1430 N.am   19  TYR19      -0.1976
     25  CA        23.6200   -0.1640    7.7670 C.3    19  TYR19       0.1639
     26  C         24.3710    1.0150    8.3890 C.2    19  TYR19       0.2290
     27  O         23.7580    1.9300    8.9440 O.2    19  TYR19      -0.2864
     28  CB        23.7750   -0.1000    6.2440 C.3    19  TYR19       0.0560
     29  CG        23.3050   -1.3190    5.4670 C.ar   19  TYR19      -0.0198
     30  CD1       22.6210   -1.1730    4.2530 C.ar   19  TYR19      -0.0009
     31  CD2       23.5570   -2.6130    5.9270 C.ar   19  TYR19      -0.0009
     32  CE1       22.1970   -2.2900    3.5210 C.ar   19  TYR19       0.0417
     33  CE2       23.1370   -3.7330    5.2080 C.ar   19  TYR19       0.0417
     34  CZ        22.4590   -3.5670    4.0110 C.ar   19  TYR19       0.1957
     35  OH        22.0460   -4.6780    3.3100 O.3    19  TYR19      -0.2866
     36  N         23.8650    6.8890    9.1070 N.3    29  ALA29      -0.1245
     37  CA        23.2690    5.5590    9.2390 C.3    29  ALA29       0.1562
     38  C         22.1070    5.4120    8.2710 C.2    29  ALA29       0.2260
     39  O         21.3640    6.3650    8.0560 O.2    29  ALA29      -0.2867
     40  CB        22.8190    5.3020   10.6770 C.3    29  ALA29       0.0290
     41  N         18.6680    3.3700    7.2760 N.3    31  LYS31      -0.1245
     42  CA        17.5900    2.4750    7.6700 C.3    31  LYS31       0.1561
     43  C         16.7660    2.0920    6.4320 C.2    31  LYS31       0.2260
     44  O         16.1500    2.9540    5.7980 O.2    31  LYS31      -0.2867
     45  CB        16.7310    3.1450    8.7450 C.3    31  LYS31       0.0271
     46  CG        15.6590    2.2580    9.3650 C.3    31  LYS31       0.0035
     47  CD        14.9940    2.9300   10.5650 C.3    31  LYS31       0.0206
     48  CE        13.8490    2.0920   11.0980 C.3    31  LYS31       0.1093
     49  NZ        13.4580    2.5180   12.4740 N.3    31  LYS31      -0.1314
     50  N         17.0640   11.7720   17.5200 N.3    52  VAL52      -0.1245
     51  CA        17.9330   11.4020   16.3990 C.3    52  VAL52       0.1561
     52  C         17.4340   12.0890   15.1370 C.2    52  VAL52       0.2260
     53  O         16.2670   11.9590   14.7700 O.2    52  VAL52      -0.2867
     54  CB        18.0070    9.8620   16.1830 C.3    52  VAL52       0.0252
     55  CG1       16.7150    9.3290   15.5610 C.3    52  VAL52       0.0019
     56  CG2       19.1850    9.4990   15.2950 C.3    52  VAL52       0.0019
     57  N         20.1710    8.7980    8.5560 N.3    67  PHE67      -0.1227
     58  CA        20.1870    9.3640    9.9100 C.3    67  PHE67       0.1736
     59  C         21.5920    9.7620   10.3780 C.2    67  PHE67       0.2595
     60  O         22.6030    9.2600    9.8570 O.2    67  PHE67      -0.2718
     61  CB        19.6350    8.3520   10.9130 C.3    67  PHE67       0.0547
     62  CG        18.1380    8.1990   10.8910 C.ar   67  PHE67      -0.0202
     63  CD1       17.5550    7.0330   10.3950 C.ar   67  PHE67      -0.0042
     64  CD2       17.3110    9.1960   11.4050 C.ar   67  PHE67      -0.0042
     65  CE1       16.1690    6.8650   10.3970 C.ar   67  PHE67      -0.0003
     66  CE2       15.9240    9.0370   11.4120 C.ar   67  PHE67      -0.0003
     67  CZ        15.3520    7.8670   10.9060 C.ar   67  PHE67      -0.0000
     68  N         21.6480   10.6430   11.3790 N.am   68  GLU68      -0.1965
     69  CA        22.8990   10.9590   12.0440 C.3    68  GLU68       0.1733
     70  C         23.3750    9.6710   12.7030 C.2    68  GLU68       0.2616
     71  O         22.5560    8.8560   13.1280 O.2    68  GLU68      -0.2715
     72  CB        22.7250   12.0870   13.0670 C.3    68  GLU68       0.0429
     73  CG        22.0030   11.6910   14.3590 C.3    68  GLU68       0.1163
     74  CD        21.8880   12.8340   15.3650 C.2    68  GLU68       0.3649
     75  OE1       20.7610   13.0760   15.8420 O.co2  68  GLU68      -0.2457
     76  OE2       22.9160   13.4880   15.6820 O.co2  68  GLU68      -0.2457
     77  N         24.6900    9.4580   12.7420 N.am   69  PHE69      -0.1960
     78  CA        25.2000    8.2090   13.2890 C.3    69  PHE69       0.1771
     79  C         25.3030    8.2290   14.8030 C.2    69  PHE69       0.2619
     80  O         25.6300    9.2560   15.4080 O.2    69  PHE69      -0.2715
     81  CB        26.5310    7.7830   12.6610 C.3    69  PHE69       0.0574
     82  CG        26.9590    6.4060   13.0720 C.ar   69  PHE69      -0.0200
     83  CD1       27.8860    6.2290   14.0950 C.ar   69  PHE69      -0.0042
     84  CD2       26.3920    5.2850   12.4720 C.ar   69  PHE69      -0.0042
     85  CE1       28.2590    4.9510   14.5000 C.ar   69  PHE69      -0.0003
     86  CE2       26.7520    4.0050   12.8640 C.ar   69  PHE69      -0.0003
     87  CZ        27.6910    3.8330   13.8790 C.ar   69  PHE69      -0.0000
     88  N         25.0300    7.0670   15.3890 N.am   70  MET70      -0.1963
     89  CA        24.9550    6.8920   16.8320 C.3    70  MET70       0.1736
     90  C         25.6340    5.5790   17.2200 C.2    70  MET70       0.2616
     91  O         25.2090    4.4910   16.8120 O.2    70  MET70      -0.2715
     92  CB        23.4840    6.9190   17.2940 C.3    70  MET70       0.0427
     93  CG        22.7800    8.2510   17.0310 C.3    70  MET70       0.0599
     94  SD        23.0880    9.4300   18.3600 S.3    70  MET70      -0.1393
     95  CE        23.7980   10.7930   17.4550 C.3    70  MET70       0.0692
     96  N         26.6960    5.7070   18.0100 N.am   71  GLU71      -0.1963
     97  CA        27.5580    4.5990   18.4070 C.3    71  GLU71       0.1733
     98  C         26.8120    3.3640   18.9130 C.2    71  GLU71       0.2616
     99  O         27.1380    2.2420   18.5280 O.2    71  GLU71      -0.2715
    100  CB        28.5390    5.0750   19.4810 C.3    71  GLU71       0.0429
    101  CG        29.7590    5.8260   18.9690 C.3    71  GLU71       0.1163
    102  CD        29.4150    7.0360   18.1070 C.2    71  GLU71       0.3649
    103  OE1       28.4140    7.7290   18.4040 O.co2  71  GLU71      -0.2457
    104  OE2       30.1640    7.2950   17.1320 O.co2  71  GLU71      -0.2457
    105  N         25.8110    3.5780   19.7680 N.am   72  LYS72      -0.1963
    106  CA        25.1530    2.4820   20.4890 C.3    72  LYS72       0.1728
    107  C         23.7330    2.8370   20.9240 C.2    72  LYS72       0.2616
    108  O         23.2780    3.9720   20.7380 O.2    72  LYS72      -0.2715
    109  CB        25.9820    2.1100   21.7330 C.3    72  LYS72       0.0311
    110  CG        26.1740    3.2830   22.6740 C.3    72  LYS72       0.0038
    111  CD        27.5050    3.2870   23.3990 C.3    72  LYS72       0.0206
    112  CE        27.8630    4.7330   23.7730 C.3    72  LYS72       0.1093
    113  NZ        28.5630    4.8680   25.0850 N.3    72  LYS72      -0.1314
    114  N         23.0550    1.8530   21.5190 N.am   73  ASP73      -0.1971
    115  CA        21.7730    2.0580   22.1720 C.3    73  ASP73       0.1709
    116  C         21.8180    1.6560   23.6490 C.2    73  ASP73       0.2293
    117  O         22.7170    0.9320   24.0850 O.2    73  ASP73      -0.2864
    118  CB        20.6600    1.3120   21.4300 C.3    73  ASP73       0.1436
    119  CG        20.9280   -0.1760   21.2910 C.2    73  ASP73       0.3671
    120  OD1       21.2360   -0.8300   22.2910 O.co2  73  ASP73      -0.2456
    121  OD2       20.8040   -0.7100   20.1740 O.co2  73  ASP73      -0.2456
    122  N         22.3200   -1.9110   24.8960 N.3    76  LYS76      -0.1245
    123  CA        23.7060   -2.3740   24.9550 C.3    76  LYS76       0.1561
    124  C         24.4510   -1.8580   26.1890 C.2    76  LYS76       0.2260
    125  O         25.2910   -2.5700   26.7430 O.2    76  LYS76      -0.2867
    126  CB        24.4520   -2.0310   23.6630 C.3    76  LYS76       0.0271
    127  CG        23.8830   -2.7450   22.4420 C.3    76  LYS76       0.0035
    128  CD        24.7460   -2.5350   21.2040 C.3    76  LYS76       0.0206
    129  CE        23.9890   -2.8900   19.9230 C.3    76  LYS76       0.1093
    130  NZ        24.8840   -2.8530   18.7380 N.3    76  LYS76      -0.1314
    131  N         19.1110    5.8200   21.4710 N.3   120  LEU120     -0.1245
    132  CA        20.4880    5.7470   20.9980 C.3   120  LEU120      0.1561
    133  C         21.3460    6.6960   21.8160 C.2   120  LEU120      0.2260
    134  O         20.8460    7.7260   22.2880 O.2   120  LEU120     -0.2867
    135  CB        20.5640    6.0640   19.5070 C.3   120  LEU120      0.0270
    136  CG        19.5080    5.4420   18.5760 C.3   120  LEU120      0.0019
    137  CD1       19.7920    5.8430   17.1500 C.3   120  LEU120      0.0001
    138  CD2       19.3880    3.9110   18.6910 C.3   120  LEU120      0.0001
    139  N         14.7020    7.4280   19.0370 N.3   129  ALA129     -0.1231
    140  CA        14.6680    6.9500   17.6700 C.3   129  ALA129      0.1694
    141  C         13.4270    6.1090   17.4530 C.2   129  ALA129      0.2592
    142  O         12.7050    5.8210   18.4080 O.2   129  ALA129     -0.2718
    143  CB        15.9150    6.1380   17.3680 C.3   129  ALA129      0.0304
    144  N         13.1930    5.7280   16.1980 N.am  130  ASP130     -0.1974
    145  CA        12.1460    4.7780   15.8060 C.3   130  ASP130      0.1709
    146  C         10.7460    5.3090   16.1130 C.2   130  ASP130      0.2293
    147  O         10.1000    4.9080   17.0910 O.2   130  ASP130     -0.2864
    148  CB        12.3940    3.3810   16.4180 C.3   130  ASP130      0.1436
    149  CG        11.4970    2.3330   15.7660 C.2   130  ASP130      0.3671
    150  OD1       11.8470    1.8870   14.6700 O.co2 130  ASP130     -0.2456
    151  OD2       10.4790    1.9170   16.3820 O.co2 130  ASP130     -0.2456
@<TRIPOS>BOND
     1    35    34    1
     2    32    34   ar
     3    32    30   ar
     4    34    33   ar
     5    30    29   ar
     6    33    31   ar
     7    29    31   ar
     8    29    28    1
     9    44    43    2
    10    28    25    1
    11    43    42    1
    12    41    42    1
    13    42    45    1
    14    25    24    1
    15    25    26    1
    16    39    38    2
    17    24    19   am
    18    38    37    1
    19    26    27    2
    20    57    58    1
    21    45    46    1
    22    19    18    1
    23    19    20    2
    24    36    37    1
    25    37    40    1
    26    17    18    1
    27    46    47    1
    28    18    21    1
    29    60    59    2
    30    58    59    1
    31    58    61    1
    32     1     2    1
    33    59    68   am
    34    63    65   ar
    35    63    62   ar
    36    65    67   ar
    37    47    48    1
    38    21    22    1
    39    21    23    1
    40    62    61    1
    41    62    64   ar
    42    67    66   ar
    43    48    49    1
    44    68    69    1
    45    64    66   ar
    46     2     3    1
    47     2     5    1
    48    11    10    2
    49     7     5    1
    50     8     9    1
    51    69    70    1
    52    69    72    1
    53     3     4    2
    54     6     5    1
    55    10     9    1
    56    84    86   ar
    57    84    82   ar
    58    81    82    1
    59    81    78    1
    60    70    77   am
    61    70    71    2
    62     9    12    1
    63    77    78    1
    64    86    87   ar
    65    72    73    1
    66    82    83   ar
    67    78    79    1
    68    15    14   ar
    69    87    85   ar
    70    83    85   ar
    71    12    13    1
    72    73    74    1
    73    14    16   ar
    74    14    13    1
    75   150   149   ar
    76    53    52    2
    77    79    88   am
    78    79    80    2
    79    52    51    1
    80    56    54    1
    81    74    76   ar
    82    74    75   ar
    83    88    89    1
    84    55    54    1
    85   149   151   ar
    86   149   148    1
    87   145   146    1
    88   145   144    1
    89   145   148    1
    90   146   147    2
    91    54    51    1
    92   144   141   am
    93    51    50    1
    94    91    90    2
    95    89    90    1
    96    89    92    1
    97    93    92    1
    98    93    94    1
    99   104   102   ar
   100   137   136    1
   101    90    96   am
   102   143   140    1
   103   141   140    1
   104   141   142    2
   105    95    94    1
   106   140   139    1
   107    96    97    1
   108   102   103   ar
   109   102   101    1
   110    97    98    1
   111    97   100    1
   112    99    98    2
   113   136   138    1
   114   136   135    1
   115   130   129    1
   116    98   105   am
   117   101   100    1
   118   135   132    1
   119   105   106    1
   120   129   128    1
   121   121   119   ar
   122   106   107    1
   123   106   109    1
   124   108   107    2
   125   107   114   am
   126   132   131    1
   127   132   133    1
   128   128   127    1
   129   119   118    1
   130   119   120   ar
   131   118   115    1
   132   114   115    1
   133   109   110    1
   134   133   134    2
   135   115   116    1
   136   127   126    1
   137   110   111    1
   138   111   112    1
   139   116   117    2
   140   126   123    1
   141   112   113    1
   142   122   123    1
   143   123   124    1
   144   124   125    2
