@<TRIPOS>MOLECULE
tmp/2qksA00.pdb
 93 87 0 0 0
SMALL
GASTEIGER

@<TRIPOS>ATOM
      1  N         29.7880   42.8940  -29.1260 N.3    20  TYR20      -0.1227
      2  CA        30.4090   43.0010  -30.4450 C.3    20  TYR20       0.1736
      3  C         31.6730   42.1390  -30.5560 C.2    20  TYR20       0.2595
      4  O         32.7740   42.5710  -30.2070 O.2    20  TYR20      -0.2718
      5  CB        30.7280   44.4740  -30.7570 C.3    20  TYR20       0.0548
      6  CG        29.7530   45.1570  -31.7150 C.ar   20  TYR20      -0.0200
      7  CD1       29.6660   46.5510  -31.7760 C.ar   20  TYR20      -0.0009
      8  CD2       28.9540   44.4130  -32.5900 C.ar   20  TYR20      -0.0009
      9  CE1       28.8130   47.1840  -32.6830 C.ar   20  TYR20       0.0417
     10  CE2       28.0980   45.0430  -33.5030 C.ar   20  TYR20       0.0417
     11  CZ        28.0370   46.4250  -33.5410 C.ar   20  TYR20       0.1957
     12  OH        27.2070   47.0530  -34.4380 O.3    20  TYR20      -0.2866
     13  N         31.4860   40.9140  -31.0470 N.am   21  LEU21      -0.1966
     14  CA        32.5550   39.9320  -31.2320 C.3    21  LEU21       0.1728
     15  C         33.2460   39.6250  -29.9130 C.2    21  LEU21       0.2616
     16  O         34.1990   38.8510  -29.8590 O.2    21  LEU21      -0.2715
     17  CB        33.5730   40.4330  -32.2610 C.3    21  LEU21       0.0311
     18  CG        34.1370   39.3500  -33.1900 C.3    21  LEU21       0.0022
     19  CD1       34.7880   39.9980  -34.3950 C.3    21  LEU21       0.0001
     20  CD2       35.1270   38.4760  -32.4490 C.3    21  LEU21       0.0001
     21  N         32.7360   40.2300  -28.8490 N.am   22  SER22      -0.1950
     22  CA        33.2680   40.0500  -27.5070 C.3    22  SER22       0.1924
     23  C         33.6680   38.6070  -27.1790 C.2    22  SER22       0.2314
     24  O         34.7780   38.3580  -26.7000 O.2    22  SER22      -0.2863
     25  CB        32.2400   40.5510  -26.4890 C.3    22  SER22       0.2116
     26  OG        30.9510   40.0350  -26.7810 O.3    22  SER22      -0.2180
     27  N         35.9520   37.0170  -30.0230 N.3    25  PHE25      -0.1227
     28  CA        37.1830   37.7970  -30.0730 C.3    25  PHE25       0.1736
     29  C         38.3170   37.0820  -29.3460 C.2    25  PHE25       0.2596
     30  O         39.3920   36.8550  -29.9060 O.2    25  PHE25      -0.2718
     31  CB        36.9670   39.1710  -29.4350 C.3    25  PHE25       0.0547
     32  CG        38.1970   40.0300  -29.4200 C.ar   25  PHE25      -0.0202
     33  CD1       38.7530   40.4880  -30.6090 C.ar   25  PHE25      -0.0042
     34  CD2       38.8170   40.3600  -28.2210 C.ar   25  PHE25      -0.0042
     35  CE1       39.9100   41.2610  -30.6050 C.ar   25  PHE25      -0.0003
     36  CE2       39.9750   41.1330  -28.2060 C.ar   25  PHE25      -0.0003
     37  CZ        40.5230   41.5850  -29.4010 C.ar   25  PHE25      -0.0000
     38  N         38.0690   36.7380  -28.0890 N.am   26  THR26      -0.1953
     39  CA        39.0640   36.0520  -27.2790 C.3    26  THR26       0.1897
     40  C         39.4130   34.7240  -27.9360 C.2    26  THR26       0.2313
     41  O         40.5620   34.2830  -27.8950 O.2    26  THR26      -0.2863
     42  CB        38.5330   35.7870  -25.8530 C.3    26  THR26       0.1794
     43  OG1       38.0680   37.0150  -25.2790 O.3    26  THR26      -0.2208
     44  CG2       39.6320   35.2130  -24.9750 C.3    26  THR26       0.0378
     45  N         39.4790   33.9190  -31.1880 N.3    28  LEU28      -0.1245
     46  CA        40.4350   34.1680  -32.2580 C.3    28  LEU28       0.1561
     47  C         41.8230   34.4000  -31.6710 C.2    28  LEU28       0.2260
     48  O         42.7920   33.7530  -32.0660 O.2    28  LEU28      -0.2867
     49  CB        40.0040   35.3860  -33.0770 C.3    28  LEU28       0.0270
     50  CG        40.9190   35.8130  -34.2310 C.3    28  LEU28       0.0019
     51  CD1       41.1780   34.6370  -35.1710 C.3    28  LEU28       0.0001
     52  CD2       40.2730   36.9700  -34.9720 C.3    28  LEU28       0.0001
     53  N         42.3460   33.6010  -40.6710 N.3    40  LEU40      -0.1245
     54  CA        42.2650   34.8320  -41.4560 C.3    40  LEU40       0.1561
     55  C         42.2210   34.4950  -42.9490 C.2    40  LEU40       0.2260
     56  O         41.5270   35.1520  -43.7240 O.2    40  LEU40      -0.2867
     57  CB        43.4700   35.7340  -41.1660 C.3    40  LEU40       0.0270
     58  CG        43.5500   36.3380  -39.7610 C.3    40  LEU40       0.0019
     59  CD1       44.7720   37.2350  -39.6680 C.3    40  LEU40       0.0001
     60  CD2       42.2890   37.1390  -39.4700 C.3    40  LEU40       0.0001
     61  N         38.6940   33.7840  -44.0070 N.3    43  LEU43      -0.1245
     62  CA        37.8800   34.9860  -44.1780 C.3    43  LEU43       0.1561
     63  C         38.2520   35.6790  -45.4890 C.2    43  LEU43       0.2260
     64  O         37.3860   36.1720  -46.2140 O.2    43  LEU43      -0.2867
     65  CB        38.0850   35.9530  -43.0100 C.3    43  LEU43       0.0270
     66  CG        37.3230   37.2790  -43.1350 C.3    43  LEU43       0.0019
     67  CD1       35.8200   37.0120  -43.2230 C.3    43  LEU43       0.0001
     68  CD2       37.6350   38.1670  -41.9420 C.3    43  LEU43       0.0001
     69  N         39.2840   45.5930  -43.0640 N.3   110  SER110     -0.1217
     70  CA        39.6760   44.2460  -42.6750 C.3   110  SER110      0.1889
     71  C         41.1460   44.1630  -42.3000 C.2   110  SER110      0.2288
     72  O         41.5080   43.4670  -41.3580 O.2   110  SER110     -0.2866
     73  CB        39.3810   43.2600  -43.8060 C.3   110  SER110      0.2089
     74  OG        37.9860   43.2170  -44.0620 O.3   110  SER110     -0.2183
     75  N         41.4780   45.8400  -38.8510 N.3   113  LEU113     -0.1231
     76  CA        41.0130   44.9440  -37.8030 C.3   113  LEU113      0.1693
     77  C         41.9440   43.7530  -37.5740 C.2   113  LEU113      0.2591
     78  O         42.2850   43.4230  -36.4320 O.2   113  LEU113     -0.2718
     79  CB        39.6110   44.4320  -38.1340 C.3   113  LEU113      0.0284
     80  CG        38.5410   45.5160  -38.2690 C.3   113  LEU113      0.0019
     81  CD1       37.1990   44.8650  -38.5640 C.3   113  LEU113      0.0001
     82  CD2       38.4690   46.3480  -36.9910 C.3   113  LEU113      0.0001
     83  N         42.3590   43.1020  -38.6510 N.am  114  ALA114     -0.1980
     84  CA        43.2360   41.9470  -38.5090 C.3   114  ALA114      0.1597
     85  C         44.5520   42.3670  -37.8790 C.2   114  ALA114      0.2287
     86  O         45.1480   41.6170  -37.1030 O.2   114  ALA114     -0.2864
     87  CB        43.4860   41.3020  -39.8620 C.3   114  ALA114      0.0319
     88  N         44.0480   42.7610  -34.0880 N.3   117  CYS117     -0.1235
     89  CA        44.0470   41.4470  -33.4580 C.3   117  CYS117      0.1677
     90  C         45.4480   40.8850  -33.3120 C.2   117  CYS117      0.2270
     91  O         45.7930   40.3380  -32.2760 O.2   117  CYS117     -0.2867
     92  CB        43.2200   40.4530  -34.2740 C.3   117  CYS117      0.0956
     93  SG        41.4750   40.8160  -34.3220 S.3   117  CYS117     -0.0801
@<TRIPOS>BOND
     1    64    63    2
     2    63    62    1
     3    62    61    1
     4    62    65    1
     5    74    73    1
     6    73    70    1
     7    56    55    2
     8    67    66    1
     9    66    65    1
    10    66    68    1
    11    69    70    1
    12    55    54    1
    13    70    71    1
    14    71    72    2
    15    54    57    1
    16    54    53    1
    17    57    58    1
    18    87    84    1
    19    58    59    1
    20    58    60    1
    21    75    76    1
    22    83    84    1
    23    83    77   am
    24    81    80    1
    25    84    85    1
    26    80    79    1
    27    80    82    1
    28    79    76    1
    29    85    86    2
    30    76    77    1
    31    77    78    2
    32    51    50    1
    33    52    50    1
    34    12    11    1
    35    19    18    1
    36    93    92    1
    37    92    89    1
    38    50    49    1
    39    88    89    1
    40    11    10   ar
    41    11     9   ar
    42    10     8   ar
    43    89    90    1
    44    90    91    2
    45    18    20    1
    46    18    17    1
    47    49    46    1
    48     9     7   ar
    49     8     6   ar
    50    17    14    1
    51    46    47    1
    52    46    45    1
    53    48    47    2
    54     7     6   ar
    55     6     5    1
    56    14    13    1
    57    14    15    1
    58    13     3   am
    59     5     2    1
    60    33    35   ar
    61    33    32   ar
    62    35    37   ar
    63     3     2    1
    64     3     4    2
    65     2     1    1
    66    28    27    1
    67    28    31    1
    68    28    29    1
    69    15    16    2
    70    15    21   am
    71    30    29    2
    72    31    32    1
    73    32    34   ar
    74    37    36   ar
    75    29    38   am
    76    21    22    1
    77    34    36   ar
    78    38    39    1
    79    40    41    2
    80    40    39    1
    81    22    23    1
    82    22    25    1
    83    39    42    1
    84    23    24    2
    85    26    25    1
    86    42    43    1
    87    42    44    1
