@<TRIPOS>MOLECULE
tmp/2qkyB00.pdb
 171 168 0 0 0
SMALL
GASTEIGER

@<TRIPOS>ATOM
      1  N          3.4160  -19.3560    4.0910 N.3    87  ARG87      -0.1245
      2  CA         4.5320  -20.2220    3.7420 C.3    87  ARG87       0.1563
      3  C          4.1910  -21.6620    3.4100 C.2    87  ARG87       0.2260
      4  O          4.6020  -22.1650    2.3790 O.2    87  ARG87      -0.2867
      5  CB         5.5430  -20.2270    4.8750 C.3    87  ARG87       0.0307
      6  CG         6.7520  -21.0180    4.5360 C.3    87  ARG87       0.0489
      7  CD         7.8250  -20.1300    3.9830 C.3    87  ARG87       0.2205
      8  NE         8.5040  -19.4300    5.0590 N.pl3  87  ARG87      -0.0865
      9  CZ         9.3290  -18.4080    4.8830 C.cat  87  ARG87       0.5346
     10  NH1        9.5880  -17.9520    3.6590 N.pl3  87  ARG87       0.1354
     11  NH2        9.8840  -17.8360    5.9420 N.pl3  87  ARG87       0.1354
     12  N          5.1380  -20.2560   11.0710 N.3   167  GLU167     -0.1231
     13  CA         6.3330  -19.7140   10.4690 C.3   167  GLU167      0.1699
     14  C          7.5690  -19.8930   11.3350 C.2   167  GLU167      0.2592
     15  O          8.5490  -20.4910   10.9010 O.2   167  GLU167     -0.2718
     16  CB         6.1000  -18.2270   10.1760 C.3   167  GLU167      0.0402
     17  CG         7.3150  -17.4190    9.7650 C.3   167  GLU167      0.1161
     18  CD         7.7560  -17.6980    8.3460 C.2   167  GLU167      0.3649
     19  OE1        7.0620  -18.4810    7.6590 O.co2 167  GLU167     -0.2457
     20  OE2        8.7890  -17.1330    7.9210 O.co2 167  GLU167     -0.2457
     21  N          7.5010  -19.3940   12.5670 N.am  168  GLU168     -0.1979
     22  CA         8.6260  -19.4170   13.5010 C.3   168  GLU168      0.1602
     23  C          8.8500  -20.6090   14.4220 C.2   168  GLU168      0.2287
     24  O          9.8280  -20.6080   15.1750 O.2   168  GLU168     -0.2864
     25  CB         8.5960  -18.1480   14.3560 C.3   168  GLU168      0.0415
     26  CG         8.3750  -16.8860   13.5550 C.3   168  GLU168      0.1163
     27  CD         9.4170  -16.6840   12.4950 C.2   168  GLU168      0.3649
     28  OE1        9.8010  -17.6570   11.8290 O.co2 168  GLU168     -0.2457
     29  OE2        9.8500  -15.5420   12.3110 O.co2 168  GLU168     -0.2457
     30  N          7.2200  -24.7540   11.4160 N.3   171  SER171     -0.1217
     31  CA         7.5870  -24.7210   10.0140 C.3   171  SER171      0.1889
     32  C          6.6070  -25.5620    9.2090 C.2   171  SER171      0.2288
     33  O          6.9250  -26.0830    8.1390 O.2   171  SER171     -0.2866
     34  CB         9.0000  -25.2580    9.8010 C.3   171  SER171      0.2089
     35  OG         9.9710  -24.3240   10.2070 O.3   171  SER171     -0.2183
     36  N         17.3930  -22.8180   15.4390 N.3   319  PHE319     -0.1241
     37  CA        16.2150  -21.9500   15.3970 C.3   319  PHE319      0.1605
     38  C         15.3210  -22.4060   16.5510 C.2   319  PHE319      0.2264
     39  O         14.6280  -21.6110   17.1840 O.2   319  PHE319     -0.2867
     40  CB        15.5060  -22.0600   14.0480 C.3   319  PHE319      0.0534
     41  CG        16.2900  -21.4580   12.9200 C.ar  319  PHE319     -0.0203
     42  CD1       16.3670  -20.0860   12.7690 C.ar  319  PHE319     -0.0042
     43  CD2       17.0450  -22.2540   12.0790 C.ar  319  PHE319     -0.0042
     44  CE1       17.1840  -19.5290   11.8150 C.ar  319  PHE319     -0.0003
     45  CE2       17.8630  -21.6920   11.1250 C.ar  319  PHE319     -0.0003
     46  CZ        17.9330  -20.3350   10.9980 C.ar  319  PHE319     -0.0000
     47  N         22.7980  -12.4980    3.1110 N.3   509  TYR509     -0.1241
     48  CA        21.6590  -12.8700    3.9170 C.3   509  TYR509      0.1605
     49  C         22.0350  -12.5360    5.3580 C.2   509  TYR509      0.2264
     50  O         21.3260  -11.8360    6.0600 O.2   509  TYR509     -0.2867
     51  CB        21.3320  -14.3380    3.7930 C.3   509  TYR509      0.0534
     52  CG        20.1020  -14.6440    4.5790 C.ar  509  TYR509     -0.0201
     53  CD1       20.1600  -14.8360    5.9470 C.ar  509  TYR509     -0.0009
     54  CD2       18.8580  -14.6210    3.9780 C.ar  509  TYR509     -0.0009
     55  CE1       19.0050  -14.9880    6.6970 C.ar  509  TYR509      0.0417
     56  CE2       17.7030  -14.7710    4.7190 C.ar  509  TYR509      0.0417
     57  CZ        17.7840  -14.9500    6.0700 C.ar  509  TYR509      0.1957
     58  OH        16.6310  -15.0750    6.7920 O.3   509  TYR509     -0.2866
     59  N         17.5680   -9.6660    0.5350 N.3   591  TRP591     -0.1227
     60  CA        16.1480   -9.9470    0.4880 C.3   591  TRP591      0.1737
     61  C         15.7970  -10.5240    1.8570 C.2   591  TRP591      0.2596
     62  O         16.4750  -11.4290    2.3540 O.2   591  TRP591     -0.2718
     63  CB        15.8600  -10.9730   -0.6140 C.3   591  TRP591      0.0564
     64  CG        14.4020  -11.2570   -0.8600 C.ar  591  TRP591      0.0003
     65  CD1       13.4350  -11.5100    0.0810 C.ar  591  TRP591      0.0946
     66  CD2       13.7580  -11.3790   -2.1350 C.ar  591  TRP591      0.0152
     67  NE1       12.2320  -11.7830   -0.5320 N.ar  591  TRP591     -0.2442
     68  CE2       12.4000  -11.7110   -1.8910 C.ar  591  TRP591      0.0810
     69  CE3       14.1940  -11.2430   -3.4600 C.ar  591  TRP591      0.0012
     70  CZ2       11.4790  -11.9090   -2.9210 C.ar  591  TRP591      0.0191
     71  CZ3       13.2760  -11.4410   -4.4830 C.ar  591  TRP591      0.0001
     72  CH2       11.9350  -11.7700   -4.2060 C.ar  591  TRP591      0.0015
     73  N         14.7360   -9.9930    2.4560 N.am  592  SER592     -0.1938
     74  CA        14.3050  -10.4410    3.7640 C.3   592  SER592      0.2055
     75  C         15.3660   -9.9390    4.7580 C.2   592  SER592      0.2643
     76  O         15.7260   -8.7630    4.7280 O.2   592  SER592     -0.2714
     77  CB        14.3130  -11.9350    3.8200 C.3   592  SER592      0.2130
     78  OG        13.6680  -12.2660    4.9960 O.3   592  SER592     -0.2179
     79  N         15.8790  -10.8230    5.6240 N.am  593  TYR593     -0.1973
     80  CA        16.9190  -10.4220    6.5800 C.3   593  TYR593      0.1639
     81  C         18.0160   -9.7850    5.7570 C.2   593  TYR593      0.2290
     82  O         18.5360   -8.7310    6.1130 O.2   593  TYR593     -0.2864
     83  CB        17.5160  -11.6200    7.3470 C.3   593  TYR593      0.0560
     84  CG        18.3890  -11.2090    8.5490 C.ar  593  TYR593     -0.0198
     85  CD1       19.5960  -10.5050    8.3780 C.ar  593  TYR593     -0.0009
     86  CD2       17.9660  -11.4530    9.8650 C.ar  593  TYR593     -0.0009
     87  CE1       20.3440  -10.0510    9.4830 C.ar  593  TYR593      0.0417
     88  CE2       18.7110  -10.9980   10.9730 C.ar  593  TYR593      0.0417
     89  CZ        19.8910  -10.2970   10.7730 C.ar  593  TYR593      0.1957
     90  OH        20.5810   -9.8080   11.8570 O.3   593  TYR593     -0.2866
     91  N         13.6580   -5.9870    6.5240 N.3   618  VAL618     -0.1245
     92  CA        13.0570   -5.6760    7.8030 C.3   618  VAL618      0.1561
     93  C         13.6720   -4.3150    8.0620 C.2   618  VAL618      0.2260
     94  O         14.8820   -4.1870    7.9260 O.2   618  VAL618     -0.2867
     95  CB        13.5360   -6.6210    8.9100 C.3   618  VAL618      0.0252
     96  CG1       13.0650   -6.0980   10.2750 C.3   618  VAL618      0.0019
     97  CG2       13.0180   -8.0150    8.6640 C.3   618  VAL618      0.0019
     98  N         13.1360   -3.8330   14.1290 N.3   621  TRP621     -0.1241
     99  CA        12.7730   -5.1220   14.7050 C.3   621  TRP621      0.1605
    100  C         11.4570   -5.2650   15.4540 C.2   621  TRP621      0.2264
    101  O         10.9640   -6.3840   15.6550 O.2   621  TRP621     -0.2867
    102  CB        13.9400   -5.6180   15.5520 C.3   621  TRP621      0.0550
    103  CG        15.0470   -6.1030   14.6650 C.ar  621  TRP621      0.0003
    104  CD1       16.2930   -5.5800   14.5410 C.ar  621  TRP621      0.0946
    105  CD2       14.9790   -7.1970   13.7460 C.ar  621  TRP621      0.0152
    106  NE1       17.0040   -6.2800   13.6030 N.ar  621  TRP621     -0.2442
    107  CE2       16.2160   -7.2790   13.1060 C.ar  621  TRP621      0.0810
    108  CE3       13.9820   -8.1160   13.4050 C.ar  621  TRP621      0.0012
    109  CZ2       16.4900   -8.2420   12.1480 C.ar  621  TRP621      0.0191
    110  CZ3       14.2520   -9.0710   12.4530 C.ar  621  TRP621      0.0001
    111  CH2       15.4980   -9.1310   11.8340 C.ar  621  TRP621      0.0015
    112  N          8.6180   -6.7520   13.4930 N.3   624  TYR624     -0.1241
    113  CA         8.7000   -8.1890   13.1910 C.3   624  TYR624      0.1605
    114  C          8.1620   -9.1240   14.2870 C.2   624  TYR624      0.2264
    115  O          8.1260   -8.7500   15.4620 O.2   624  TYR624     -0.2867
    116  CB        10.1330   -8.5720   12.8440 C.3   624  TYR624      0.0534
    117  CG        10.1650   -9.7900   11.9820 C.ar  624  TYR624     -0.0201
    118  CD1        9.2730   -9.9260   10.9270 C.ar  624  TYR624     -0.0009
    119  CD2       11.0270  -10.8320   12.2460 C.ar  624  TYR624     -0.0009
    120  CE1        9.2310  -11.0830   10.1620 C.ar  624  TYR624      0.0417
    121  CE2       10.9910  -11.9930   11.4860 C.ar  624  TYR624      0.0417
    122  CZ        10.0870  -12.1150   10.4530 C.ar  624  TYR624      0.1957
    123  OH         9.9860  -13.2910    9.7620 O.3   624  TYR624     -0.2866
    124  N         10.5240  -14.9150   16.5180 N.3   628  TYR628     -0.1241
    125  CA        11.8180  -14.7770   15.8530 C.3   628  TYR628      0.1605
    126  C         12.6540  -13.5920   16.3300 C.2   628  TYR628      0.2264
    127  O         13.8140  -13.7580   16.7010 O.2   628  TYR628     -0.2867
    128  CB        11.5940  -14.6690   14.3530 C.3   628  TYR628      0.0534
    129  CG        12.8480  -14.5480   13.5240 C.ar  628  TYR628     -0.0201
    130  CD1       13.7110  -13.4690   13.6730 C.ar  628  TYR628     -0.0009
    131  CD2       13.1640  -15.5090   12.5860 C.ar  628  TYR628     -0.0009
    132  CE1       14.8490  -13.3540   12.9140 C.ar  628  TYR628      0.0417
    133  CE2       14.2970  -15.4050   11.8270 C.ar  628  TYR628      0.0417
    134  CZ        15.1360  -14.3260   11.9950 C.ar  628  TYR628      0.1957
    135  OH        16.2700  -14.2370   11.2310 O.3   628  TYR628     -0.2866
    136  N         13.9930  -13.8300   19.7570 N.3   631  ARG631     -0.1245
    137  CA        14.9450  -14.9210   19.9400 C.3   631  ARG631      0.1563
    138  C         16.3870  -14.4360   19.8360 C.2   631  ARG631      0.2260
    139  O         17.3150  -15.0730   20.3330 O.2   631  ARG631     -0.2867
    140  CB        14.6900  -16.0470   18.9280 C.3   631  ARG631      0.0307
    141  CG        15.7220  -17.1690   18.9750 C.3   631  ARG631      0.0489
    142  CD        15.1460  -18.4870   18.4850 C.3   631  ARG631      0.2205
    143  NE        14.8240  -18.4970   17.0670 N.pl3 631  ARG631     -0.0865
    144  CZ        13.6150  -18.7530   16.5870 C.cat 631  ARG631      0.5346
    145  NH1       12.6180  -19.0130   17.4200 N.pl3 631  ARG631      0.1354
    146  NH2       13.4050  -18.7670   15.2740 N.pl3 631  ARG631      0.1354
    147  N          4.4570  -11.7050    5.9390 N.3   672  ASN672     -0.1225
    148  CA         5.6400  -11.9870    6.7640 C.3   672  ASN672      0.1785
    149  C          6.3400  -10.6900    7.1880 C.2   672  ASN672      0.2597
    150  O          6.2120  -10.2600    8.3370 O.2   672  ASN672     -0.2718
    151  CB         6.6240  -12.8770    5.9980 C.3   672  ASN672      0.1169
    152  CG         7.6970  -13.4530    6.8880 C.2   672  ASN672      0.2627
    153  OD1        8.1920  -12.7850    7.7880 O.2   672  ASN672     -0.2716
    154  ND2        8.0720  -14.6930    6.6320 N.am  672  ASN672     -0.0877
    155  N          7.0970  -10.0850    6.2740 N.am  673  VAL673     -0.1980
    156  CA         7.7760   -8.8180    6.5570 C.3   673  VAL673      0.1595
    157  C          6.8790   -7.7290    5.9550 C.2   673  VAL673      0.2287
    158  O          7.0710   -7.2760    4.8240 O.2   673  VAL673     -0.2864
    159  CB         9.1890   -8.7640    5.9310 C.3   673  VAL673      0.0276
    160  CG1        9.8090   -7.4240    6.1900 C.3   673  VAL673      0.0022
    161  CG2       10.0600   -9.8400    6.5230 C.3   673  VAL673      0.0022
    162  N          5.8480  -12.3590    0.6330 N.3   702  HIS702     -0.1241
    163  CA         7.2540  -12.1810    0.9660 C.3   702  HIS702      0.1621
    164  C          8.1330  -12.8860   -0.0470 C.2   702  HIS702      0.2264
    165  O          9.3520  -12.7690   -0.0270 O.2   702  HIS702     -0.2867
    166  CB         7.5180  -12.7070    2.3790 C.3   702  HIS702      0.0745
    167  CG         8.8560  -12.3330    2.9220 C.ar  702  HIS702      0.0817
    168  ND1        9.2020  -11.0340    3.2080 N.ar  702  HIS702     -0.2268
    169  CD2        9.9430  -13.0850    3.2120 C.ar  702  HIS702      0.1154
    170  CE1       10.4470  -11.0020    3.6480 C.ar  702  HIS702      0.1986
    171  NE2       10.9220  -12.2330    3.6600 N.ar  702  HIS702     -0.2212
@<TRIPOS>BOND
     1    71    72   ar
     2    71    69   ar
     3    72    70   ar
     4    69    66   ar
     5    70    68   ar
     6    66    68   ar
     7    66    64   ar
     8    68    67   ar
     9    64    63    1
    10    64    65   ar
    11    63    60    1
    12    67    65   ar
    13   164   165    2
    14   164   163    1
    15    60    59    1
    16    60    61    1
    17   162   163    1
    18   163   166    1
    19    61    62    2
    20    61    73   am
    21   166   167    1
    22     4     3    2
    23    73    74    1
    24   167   168   ar
    25   167   169   ar
    26    47    48    1
    27   168   170   ar
    28   169   171   ar
    29     3     2    1
    30   170   171   ar
    31    10     9    1
    32     2     1    1
    33     2     5    1
    34    74    77    1
    35    74    75    1
    36    51    48    1
    37    51    52    1
    38    77    78    1
    39    48    49    1
    40    54    52   ar
    41    54    56   ar
    42     7     6    1
    43     7     8    1
    44     6     5    1
    45    52    53   ar
    46    56    57   ar
    47    76    75    2
    48    75    79   am
    49   158   157    2
    50     9     8    2
    51     9    11    1
    52    49    50    2
    53    79    80    1
    54    81    82    2
    55    81    80    1
    56   159   160    1
    57   159   161    1
    58   159   156    1
    59   147   148    1
    60    53    55   ar
    61   157   156    1
    62   151   148    1
    63   151   152    1
    64    57    55   ar
    65    57    58    1
    66   155   156    1
    67   155   149   am
    68    91    92    1
    69    80    83    1
    70   154   152   am
    71   148   149    1
    72   152   153    2
    73   149   150    2
    74    83    84    1
    75    19    18   ar
    76    92    93    1
    77    92    95    1
    78    20    18   ar
    79    94    93    2
    80    33    32    2
    81    18    17    1
    82    85    84   ar
    83    85    87   ar
    84    84    86   ar
    85    97    95    1
    86    95    96    1
    87    32    31    1
    88    87    89   ar
    89   123   122    1
    90    17    16    1
    91    34    31    1
    92    34    35    1
    93    86    88   ar
    94    31    30    1
    95   120   122   ar
    96   120   118   ar
    97    16    13    1
    98   122   121   ar
    99    13    12    1
   100    13    14    1
   101    89    88   ar
   102    89    90    1
   103    15    14    2
   104   118   117   ar
   105    46    45   ar
   106    46    44   ar
   107    45    43   ar
   108   135   134    1
   109    14    21   am
   110   121   119   ar
   111    44    42   ar
   112   133   134   ar
   113   133   131   ar
   114    28    27   ar
   115   111   109   ar
   116   111   110   ar
   117   117   119   ar
   118   117   116    1
   119   134   132   ar
   120    43    41   ar
   121   109   107   ar
   122    29    27   ar
   123   110   108   ar
   124    27    26    1
   125    21    22    1
   126   131   129   ar
   127    42    41   ar
   128   116   113    1
   129   132   130   ar
   130    41    40    1
   131   107   106   ar
   132   107   105   ar
   133   113   112    1
   134   113   114    1
   135   108   105   ar
   136    22    25    1
   137    22    23    1
   138   129   130   ar
   139   129   128    1
   140    26    25    1
   141   106   104   ar
   142   105   103   ar
   143    40    37    1
   144    98    99    1
   145   114   115    2
   146   128   125    1
   147    23    24    2
   148   104   103   ar
   149   103   102    1
   150    99   100    1
   151    99   102    1
   152   146   144    1
   153    37    36    1
   154    37    38    1
   155   100   101    2
   156   125   126    1
   157   125   124    1
   158   126   127    2
   159    38    39    2
   160   144   143    2
   161   144   145    1
   162   143   142    1
   163   142   141    1
   164   140   141    1
   165   140   137    1
   166   136   137    1
   167   138   137    1
   168   138   139    2
