@<TRIPOS>MOLECULE
tmp/2ql5D00.pdb
 117 120 0 0 0
SMALL
GASTEIGER

@<TRIPOS>ATOM
      1  N         51.6300  -52.2630   26.3240 N.3    19  TYR19      -0.1227
      2  CA        52.1810  -53.0450   25.2240 C.3    19  TYR19       0.1736
      3  C         51.2650  -52.8550   24.0220 C.2    19  TYR19       0.2596
      4  O         50.1450  -52.3540   24.1550 O.2    19  TYR19      -0.2718
      5  CB        52.1830  -54.5390   25.5570 C.3    19  TYR19       0.0548
      6  CG        53.3410  -55.0460   26.3830 C.ar   19  TYR19      -0.0200
      7  CD1       54.6610  -54.8340   25.9810 C.ar   19  TYR19      -0.0009
      8  CD2       53.1160  -55.8080   27.5340 C.ar   19  TYR19      -0.0009
      9  CE1       55.7350  -55.3750   26.7070 C.ar   19  TYR19       0.0417
     10  CE2       54.1760  -56.3530   28.2650 C.ar   19  TYR19       0.0417
     11  CZ        55.4820  -56.1340   27.8480 C.ar   19  TYR19       0.1957
     12  OH        56.5290  -56.6670   28.5670 O.3    19  TYR19      -0.2866
     13  N         51.7470  -53.2690   22.8560 N.am   20  SER20      -0.1938
     14  CA        50.9740  -53.2010   21.6240 C.3    20  SER20       0.2055
     15  C         51.1430  -54.5900   21.0170 C.2    20  SER20       0.2643
     16  O         52.2610  -55.1090   20.9700 O.2    20  SER20      -0.2714
     17  CB        51.5250  -52.1220   20.6900 C.3    20  SER20       0.2130
     18  OG        50.6230  -51.8910   19.6150 O.3    20  SER20      -0.2179
     19  N         50.0450  -55.1890   20.5580 N.am   21  TRP21      -0.1959
     20  CA        50.0920  -56.5440   20.0130 C.3    21  TRP21       0.1771
     21  C         50.2510  -56.7320   18.5100 C.2    21  TRP21       0.2620
     22  O         49.6920  -55.9850   17.7000 O.2    21  TRP21      -0.2715
     23  CB        48.8750  -57.3320   20.4990 C.3    21  TRP21       0.0590
     24  CG        48.8540  -57.4970   21.9930 C.ar   21  TRP21       0.0006
     25  CD1       48.3590  -56.6140   22.9090 C.ar   21  TRP21       0.0946
     26  CD2       49.3870  -58.5990   22.7470 C.ar   21  TRP21       0.0152
     27  NE1       48.5500  -57.0940   24.1860 N.ar   21  TRP21      -0.2442
     28  CE2       49.1790  -58.3090   24.1150 C.ar   21  TRP21       0.0810
     29  CE3       50.0220  -59.8000   22.3990 C.ar   21  TRP21       0.0012
     30  CZ2       49.5830  -59.1790   25.1370 C.ar   21  TRP21       0.0191
     31  CZ3       50.4250  -60.6640   23.4170 C.ar   21  TRP21       0.0001
     32  CH2       50.2010  -60.3470   24.7690 C.ar   21  TRP21       0.0015
     33  N         51.0120  -57.7660   18.1550 N.am   22  ARG22      -0.1963
     34  CA        51.3000  -58.0970   16.7640 C.3    22  ARG22       0.1729
     35  C         51.3100  -59.6010   16.5040 C.2    22  ARG22       0.2617
     36  O         52.0010  -60.3590   17.1830 O.2    22  ARG22      -0.2715
     37  CB        52.6550  -57.4980   16.3770 C.3    22  ARG22       0.0348
     38  CG        53.2790  -58.0590   15.1060 C.3    22  ARG22       0.0492
     39  CD        54.4720  -57.2080   14.6720 C.3    22  ARG22       0.2205
     40  NE        55.3310  -56.9020   15.8400 N.pl3  22  ARG22      -0.0865
     41  CZ        56.0900  -57.8050   16.4450 C.cat  22  ARG22       0.5346
     42  NH1       56.1200  -59.0500   15.9850 N.pl3  22  ARG22       0.1354
     43  NH2       56.7720  -57.4740   17.5160 N.pl3  22  ARG22       0.1354
     44  N         50.5340  -60.0300   15.5170 N.am   23  SER23      -0.1936
     45  CA        50.4750  -61.4380   15.1550 C.3    23  SER23       0.2040
     46  C         51.4800  -61.6870   14.0290 C.2    23  SER23       0.2485
     47  O         51.3350  -61.1410   12.9350 O.2    23  SER23      -0.2729
     48  CB        49.0660  -61.7970   14.6810 C.3    23  SER23       0.2129
     49  OG        48.9990  -63.1560   14.2880 O.3    23  SER23      -0.2179
     50  N         52.5120  -62.5120   14.2830 N.am   24  PRO24      -0.2726
     51  CA        53.5470  -62.8320   13.2910 C.3    24  PRO24       0.1402
     52  C         52.9790  -63.2510   11.9370 C.2    24  PRO24       0.2269
     53  O         53.5690  -62.9690   10.8900 O.2    24  PRO24      -0.2865
     54  CB        54.3230  -63.9660   13.9560 C.3    24  PRO24       0.0296
     55  CG        54.2030  -63.6520   15.3970 C.3    24  PRO24       0.0237
     56  CD        52.7480  -63.2580   15.5300 C.3    24  PRO24       0.0939
     57  N         50.2340  -56.7030   13.0350 N.3    28  SER28      -0.1202
     58  CA        49.7620  -56.1050   14.2720 C.3    28  SER28       0.2020
     59  C         48.2560  -55.8390   14.2110 C.2    28  SER28       0.2618
     60  O         47.6980  -55.6270   13.1410 O.2    28  SER28      -0.2717
     61  CB        50.5330  -54.8150   14.5670 C.3    28  SER28       0.2103
     62  OG        50.4520  -53.9020   13.4940 O.3    28  SER28      -0.2182
     63  N         47.6020  -55.8640   15.3690 N.am   29  TRP29      -0.1975
     64  CA        46.1600  -55.6500   15.4560 C.3    29  TRP29       0.1640
     65  C         45.7360  -54.2860   14.9310 C.2    29  TRP29       0.2290
     66  O         44.8080  -54.1750   14.1310 O.2    29  TRP29      -0.2864
     67  CB        45.7070  -55.7860   16.8980 C.3    29  TRP29       0.0576
     68  CG        46.0200  -57.1090   17.5250 C.ar   29  TRP29       0.0006
     69  CD1       46.5880  -58.2050   16.9260 C.ar   29  TRP29       0.0946
     70  CD2       45.7420  -57.4880   18.8740 C.ar   29  TRP29       0.0152
     71  NE1       46.6780  -59.2430   17.8250 N.ar   29  TRP29      -0.2442
     72  CE2       46.1710  -58.8270   19.0300 C.ar   29  TRP29       0.0810
     73  CE3       45.1820  -56.8210   19.9730 C.ar   29  TRP29       0.0012
     74  CZ2       46.0370  -59.5180   20.2420 C.ar   29  TRP29       0.0191
     75  CZ3       45.0500  -57.5060   21.1770 C.ar   29  TRP29       0.0001
     76  CH2       45.4830  -58.8390   21.3040 C.ar   29  TRP29       0.0015
     77  N         42.0730  -60.5940   20.7870 N.3    63  GLU63      -0.1231
     78  CA        42.3900  -61.1420   22.1020 C.3    63  GLU63       0.1699
     79  C         43.6510  -61.9690   21.8720 C.2    63  GLU63       0.2593
     80  O         43.6980  -62.7760   20.9480 O.2    63  GLU63      -0.2718
     81  CB        41.2550  -62.0310   22.6140 C.3    63  GLU63       0.0402
     82  CG        41.2780  -62.1990   24.1250 C.3    63  GLU63       0.1161
     83  CD        40.1800  -63.1030   24.6460 C.2    63  GLU63       0.3649
     84  OE1       38.9940  -62.8540   24.3380 O.co2  63  GLU63      -0.2457
     85  OE2       40.5050  -64.0610   25.3760 O.co2  63  GLU63      -0.2457
     86  N         44.6710  -61.7650   22.6990 N.am   64  SER64      -0.1938
     87  CA        45.9320  -62.4800   22.5270 C.3    64  SER64       0.2055
     88  C         45.8910  -63.9550   22.9080 C.2    64  SER64       0.2643
     89  O         45.0970  -64.3760   23.7480 O.2    64  SER64      -0.2714
     90  CB        47.0580  -61.7840   23.3060 C.3    64  SER64       0.2130
     91  OG        46.9520  -62.0060   24.6980 O.3    64  SER64      -0.2179
     92  N         46.7610  -64.7300   22.2690 N.am   65  GLN65      -0.1963
     93  CA        46.8710  -66.1600   22.5220 C.3    65  GLN65       0.1733
     94  C         48.3460  -66.4790   22.7100 C.2    65  GLN65       0.2617
     95  O         49.1650  -66.1900   21.8350 O.2    65  GLN65      -0.2715
     96  CB        46.3240  -66.9470   21.3370 C.3    65  GLN65       0.0408
     97  CG        44.9080  -66.5640   20.9490 C.3    65  GLN65       0.0908
     98  CD        44.4360  -67.2950   19.7070 C.2    65  GLN65       0.2608
     99  OE1       44.3400  -68.5270   19.6950 O.2    65  GLN65      -0.2717
    100  NE2       44.1440  -66.5400   18.6500 N.am   65  GLN65      -0.0878
    101  N         48.6850  -67.0670   23.8510 N.am   66  SER66      -0.1950
    102  CA        50.0730  -67.4060   24.1380 C.3    66  SER66       0.1924
    103  C         50.1700  -68.6410   25.0280 C.2    66  SER66       0.2314
    104  O         49.2910  -68.8850   25.8560 O.2    66  SER66      -0.2863
    105  CB        50.7630  -66.2200   24.8180 C.3    66  SER66       0.2116
    106  OG        52.1290  -66.4930   25.0640 O.3    66  SER66      -0.2180
    107  N         50.8570  -64.0380   29.3380 N.3    71  PHE71      -0.1241
    108  CA        50.5440  -63.2340   28.1530 C.3    71  PHE71       0.1605
    109  C         49.3200  -63.6140   27.3190 C.2    71  PHE71       0.2264
    110  O         49.1560  -63.0840   26.2180 O.2    71  PHE71      -0.2867
    111  CB        51.7480  -63.2220   27.2020 C.3    71  PHE71       0.0534
    112  CG        52.8820  -62.3610   27.6600 C.ar   71  PHE71      -0.0203
    113  CD1       52.7110  -60.9860   27.8110 C.ar   71  PHE71      -0.0042
    114  CD2       54.1270  -62.9160   27.9260 C.ar   71  PHE71      -0.0042
    115  CE1       53.7690  -60.1730   28.2190 C.ar   71  PHE71      -0.0003
    116  CE2       55.1900  -62.1180   28.3350 C.ar   71  PHE71      -0.0003
    117  CZ        55.0120  -60.7410   28.4830 C.ar   71  PHE71      -0.0000
@<TRIPOS>BOND
     1    53    52    2
     2    52    51    1
     3    47    46    2
     4    57    58    1
     5    60    59    2
     6    51    54    1
     7    51    50    1
     8    62    61    1
     9    54    55    1
    10    46    50   am
    11    46    45    1
    12    66    65    2
    13    59    58    1
    14    59    63   am
    15    58    61    1
    16    50    56    1
    17    49    48    1
    18    39    38    1
    19    39    40    1
    20    48    45    1
    21    65    64    1
    22    38    37    1
    23    45    44    1
    24    63    64    1
    25    55    56    1
    26    64    67    1
    27    44    35   am
    28    40    41    2
    29    42    41    1
    30    37    34    1
    31    41    43    1
    32    35    34    1
    33    35    36    2
    34    34    33    1
    35    67    68    1
    36    69    68   ar
    37    69    71   ar
    38    68    70   ar
    39    22    21    2
    40    71    72   ar
    41    33    21   am
    42    21    20    1
    43   100    98   am
    44    70    72   ar
    45    70    73   ar
    46    72    74   ar
    47    18    17    1
    48    99    98    2
    49    98    97    1
    50    73    75   ar
    51    20    23    1
    52    20    19    1
    53    74    76   ar
    54    23    24    1
    55    19    15   am
    56    17    14    1
    57    77    78    1
    58    80    79    2
    59    97    96    1
    60    16    15    2
    61    15    14    1
    62    75    76   ar
    63    96    93    1
    64    14    13    1
    65    95    94    2
    66    79    78    1
    67    79    86   am
    68    24    26   ar
    69    24    25   ar
    70    78    81    1
    71    92    93    1
    72    92    88   am
    73    29    26   ar
    74    29    31   ar
    75    93    94    1
    76    87    86    1
    77    87    88    1
    78    87    90    1
    79    81    82    1
    80    94   101   am
    81    26    28   ar
    82    13     3   am
    83    88    89    2
    84    25    27   ar
    85    90    91    1
    86    31    32   ar
    87   101   102    1
    88     3     4    2
    89     3     2    1
    90    28    27   ar
    91    28    30   ar
    92    82    83    1
    93   102   105    1
    94   102   103    1
    95    84    83   ar
    96    83    85   ar
    97    32    30   ar
    98   105   106    1
    99   103   104    2
   100     2     5    1
   101     2     1    1
   102     5     6    1
   103     7     6   ar
   104     7     9   ar
   105   110   109    2
   106     6     8   ar
   107     9    11   ar
   108   111   112    1
   109   111   108    1
   110   109   108    1
   111     8    10   ar
   112   112   113   ar
   113   112   114   ar
   114   113   115   ar
   115    11    10   ar
   116    11    12    1
   117   114   116   ar
   118   108   107    1
   119   115   117   ar
   120   116   117   ar
