@<TRIPOS>MOLECULE
tmp/2ql6K00.pdb
 149 142 0 0 0
SMALL
GASTEIGER

@<TRIPOS>ATOM
      1  N        -58.3490   -7.4140   -8.2650 N.3    11  THR11      -0.1203
      2  CA       -59.0620   -6.4290   -9.0810 C.3    11  THR11       0.1994
      3  C        -60.5460   -6.3950   -8.7230 C.2    11  THR11       0.2618
      4  O        -61.1630   -7.4350   -8.5010 O.2    11  THR11      -0.2717
      5  CB       -58.9330   -6.7580  -10.5890 C.3    11  THR11       0.1784
      6  OG1      -59.3740   -5.6470  -11.3740 O.3    11  THR11      -0.2211
      7  CG2      -59.7870   -7.9620  -10.9480 C.3    11  THR11       0.0376
      8  N        -61.1090   -5.1940   -8.6640 N.am   12  ASN12      -0.1960
      9  CA       -62.5110   -5.0280   -8.3450 C.3    12  ASN12       0.1819
     10  C        -62.8860   -5.5820   -6.9700 C.2    12  ASN12       0.2622
     11  O        -63.9900   -6.0900   -6.7790 O.2    12  ASN12      -0.2715
     12  CB       -63.3950   -5.7120   -9.4000 C.3    12  ASN12       0.1195
     13  CG       -63.3310   -5.0490  -10.7610 C.2    12  ASN12       0.2630
     14  OD1      -62.4680   -5.3510  -11.5870 O.2    12  ASN12      -0.2716
     15  ND2      -64.2590   -4.1460  -11.0020 N.am   12  ASN12      -0.0877
     16  N        -61.9800   -5.5030   -6.0130 N.am   13  SER13      -0.1936
     17  CA       -62.3080   -5.9990   -4.6870 C.3    13  SER13       0.2055
     18  C        -62.9610   -4.8520   -3.9310 C.2    13  SER13       0.2644
     19  O        -63.5560   -5.0420   -2.8640 O.2    13  SER13      -0.2714
     20  CB       -61.0450   -6.4490   -3.9720 C.3    13  SER13       0.2130
     21  OG       -60.1190   -5.3940   -3.9170 O.3    13  SER13      -0.2179
     22  N        -62.8370   -3.6550   -4.5120 N.am   14  GLY14      -0.1939
     23  CA       -63.3890   -2.4500   -3.9180 C.3    14  GLY14       0.2014
     24  C        -62.3650   -1.4710   -3.3600 C.2    14  GLY14       0.2639
     25  O        -62.7380   -0.6060   -2.5840 O.2    14  GLY14      -0.2714
     26  N        -61.0960   -1.5870   -3.7590 N.am   15  LYS15      -0.1963
     27  CA       -60.0220   -0.7110   -3.2760 C.3    15  LYS15       0.1728
     28  C        -60.2020    0.7670   -3.5650 C.2    15  LYS15       0.2617
     29  O        -59.9420    1.5950   -2.7150 O.2    15  LYS15      -0.2715
     30  CB       -58.6810   -1.1230   -3.8720 C.3    15  LYS15       0.0311
     31  CG       -58.2900   -2.5430   -3.6260 C.3    15  LYS15       0.0038
     32  CD       -56.8940   -2.8000   -4.1660 C.3    15  LYS15       0.0206
     33  CE       -56.8370   -2.6810   -5.6760 C.3    15  LYS15       0.1093
     34  NZ       -57.6190   -3.7500   -6.3580 N.3    15  LYS15      -0.1314
     35  N        -60.6020    1.1050   -4.7810 N.am   16  THR16      -0.1937
     36  CA       -60.7880    2.4970   -5.1630 C.3    16  THR16       0.2028
     37  C        -61.9130    3.0780   -4.3260 C.2    16  THR16       0.2642
     38  O        -61.8340    4.2080   -3.8320 O.2    16  THR16      -0.2714
     39  CB       -61.1500    2.6260   -6.6780 C.3    16  THR16       0.1808
     40  OG1      -60.0450    2.1900   -7.4640 O.3    16  THR16      -0.2208
     41  CG2      -61.4630    4.0560   -7.0600 C.3    16  THR16       0.0379
     42  N        -62.9590    2.2940   -4.1490 N.am   17  THR17      -0.1950
     43  CA       -64.1000    2.7590   -3.3940 C.3    17  THR17       0.1897
     44  C        -63.7900    3.0100   -1.9270 C.2    17  THR17       0.2313
     45  O        -64.2960    3.9600   -1.3460 O.2    17  THR17      -0.2863
     46  CB       -65.2620    1.7690   -3.5450 C.3    17  THR17       0.1794
     47  OG1      -65.5080    1.5580   -4.9380 O.3    17  THR17      -0.2208
     48  CG2      -66.5280    2.3130   -2.9060 C.3    17  THR17       0.0378
     49  N        -53.4870    2.9230   -2.7670 N.3    81  GLU81      -0.1245
     50  CA       -54.3220    1.8060   -3.1870 C.3    81  GLU81       0.1567
     51  C        -53.7270    1.1880   -4.4490 C.2    81  GLU81       0.2260
     52  O        -53.2510    1.9100   -5.3380 O.2    81  GLU81      -0.2867
     53  CB       -55.7840    2.2530   -3.4280 C.3    81  GLU81       0.0388
     54  CG       -56.0980    3.1080   -4.6840 C.3    81  GLU81       0.1160
     55  CD       -56.3370    2.2940   -5.9690 C.2    81  GLU81       0.3649
     56  OE1      -57.1320    1.3240   -5.9600 O.co2  81  GLU81      -0.2457
     57  OE2      -55.7280    2.6340   -7.0130 O.co2  81  GLU81      -0.2457
     58  N        -67.3980  -13.6240   -7.8470 N.3   107  GLU107     -0.1245
     59  CA       -67.7800  -12.2240   -7.6800 C.3   107  GLU107      0.1567
     60  C        -66.8270  -11.2850   -8.3940 C.2   107  GLU107      0.2260
     61  O        -67.2520  -10.3010   -8.9980 O.2   107  GLU107     -0.2867
     62  CB       -67.8580  -11.8800   -6.1900 C.3   107  GLU107      0.0388
     63  CG       -68.3910  -10.4760   -5.8650 C.3   107  GLU107      0.1160
     64  CD       -69.5330  -10.0190   -6.7700 C.2   107  GLU107      0.3649
     65  OE1      -70.3490  -10.8520   -7.2250 O.co2 107  GLU107     -0.2457
     66  OE2      -69.6230   -8.8050   -7.0170 O.co2 107  GLU107     -0.2457
     67  N        -67.3120  -11.5460  -12.1290 N.3   110  ARG110     -0.1231
     68  CA       -68.5350  -10.8600  -12.4980 C.3   110  ARG110      0.1694
     69  C        -68.3360   -9.3380  -12.5750 C.2   110  ARG110      0.2591
     70  O        -68.6110   -8.7150  -13.6000 O.2   110  ARG110     -0.2718
     71  CB       -69.6230  -11.1910  -11.4810 C.3   110  ARG110      0.0321
     72  CG       -71.0250  -10.8100  -11.9470 C.3   110  ARG110      0.0489
     73  CD       -72.0450  -10.9140  -10.8340 C.3   110  ARG110      0.2205
     74  NE       -71.7880   -9.9160   -9.7970 N.pl3 110  ARG110     -0.0865
     75  CZ       -71.8330   -8.6000   -9.9930 C.cat 110  ARG110      0.5346
     76  NH1      -72.1300   -8.1220  -11.1910 N.pl3 110  ARG110      0.1354
     77  NH2      -71.5820   -7.7620   -8.9970 N.pl3 110  ARG110      0.1354
     78  N        -67.8640   -8.7500  -11.4820 N.am  111  ARG111     -0.1980
     79  CA       -67.6240   -7.3120  -11.4310 C.3   111  ARG111      0.1597
     80  C        -66.7100   -6.9090  -12.5800 C.2   111  ARG111      0.2287
     81  O        -66.9650   -5.9240  -13.2830 O.2   111  ARG111     -0.2864
     82  CB       -66.9660   -6.9210  -10.1050 C.3   111  ARG111      0.0334
     83  CG       -67.8270   -7.1220   -8.8880 C.3   111  ARG111      0.0492
     84  CD       -67.1410   -6.6240   -7.6350 C.3   111  ARG111      0.2205
     85  NE       -67.9280   -6.9360   -6.4490 N.pl3 111  ARG111     -0.0865
     86  CZ       -67.5480   -6.6790   -5.2030 C.cat 111  ARG111      0.5346
     87  NH1      -66.3830   -6.0990   -4.9870 N.pl3 111  ARG111      0.1354
     88  NH2      -68.3220   -7.0060   -4.1700 N.pl3 111  ARG111      0.1354
     89  N        -68.1550   -6.1560  -15.9910 N.3   114  THR114     -0.1203
     90  CA       -69.0210   -4.9870  -16.1320 C.3   114  THR114      0.1994
     91  C        -68.1730   -3.7600  -16.4220 C.2   114  THR114      0.2617
     92  O        -68.6800   -2.6540  -16.5290 O.2   114  THR114     -0.2717
     93  CB       -69.7880   -4.7070  -14.8610 C.3   114  THR114      0.1784
     94  OG1      -68.8870   -4.2090  -13.8700 O.3   114  THR114     -0.2211
     95  CG2      -70.4290   -5.9700  -14.3500 C.3   114  THR114      0.0376
     96  N        -66.8690   -3.9720  -16.5410 N.am  115  ARG115     -0.1979
     97  CA       -65.9260   -2.8990  -16.8100 C.3   115  ARG115      0.1597
     98  C        -65.1850   -3.1410  -18.1170 C.2   115  ARG115      0.2287
     99  O        -64.5970   -4.1920  -18.3300 O.2   115  ARG115     -0.2864
    100  CB       -64.9430   -2.7980  -15.6480 C.3   115  ARG115      0.0334
    101  CG       -63.9870   -1.6250  -15.6710 C.3   115  ARG115      0.0492
    102  CD       -63.4560   -1.4430  -14.2570 C.3   115  ARG115      0.2205
    103  NE       -62.0950   -0.9050  -14.1780 N.pl3 115  ARG115     -0.0865
    104  CZ       -61.4020   -0.7800  -13.0390 C.cat 115  ARG115      0.5346
    105  NH1      -61.9330   -1.1560  -11.8640 N.pl3 115  ARG115      0.1354
    106  NH2      -60.1720   -0.2760  -13.0750 N.pl3 115  ARG115      0.1354
    107  N        -64.4360   -8.2050    1.1170 N.3   151  GLY151     -0.1210
    108  CA       -64.9230   -7.3460    0.0470 C.3   151  GLY151      0.1956
    109  C        -66.3800   -7.5210   -0.3350 C.2   151  GLY151      0.2613
    110  O        -66.9410   -6.7020   -1.0600 O.2   151  GLY151     -0.2717
    111  N        -66.9880   -8.5990    0.1380 N.am  152  THR152     -0.1938
    112  CA       -68.3810   -8.8790   -0.1520 C.3   152  THR152      0.2028
    113  C        -69.2480   -8.0830    0.7990 C.2   152  THR152      0.2642
    114  O        -70.4280   -7.8770    0.5520 O.2   152  THR152     -0.2714
    115  CB       -68.6920  -10.3760    0.0200 C.3   152  THR152      0.1808
    116  OG1      -68.6480  -10.7260    1.4090 O.3   152  THR152     -0.2208
    117  CG2      -67.6720  -11.2100   -0.7320 C.3   152  THR152      0.0379
    118  N        -68.6470   -7.6330    1.8920 N.am  153  LYS153     -0.1963
    119  CA       -69.3560   -6.8550    2.8780 C.3   153  LYS153      0.1728
    120  C        -69.8720   -5.5640    2.2800 C.2   153  LYS153      0.2617
    121  O        -69.6000   -5.2180    1.1320 O.2   153  LYS153     -0.2715
    122  CB       -68.4550   -6.5200    4.0530 C.3   153  LYS153      0.0311
    123  CG       -68.3610   -7.5590    5.1240 C.3   153  LYS153      0.0038
    124  CD       -67.6190   -6.9510    6.2850 C.3   153  LYS153      0.0206
    125  CE       -67.4830   -7.8890    7.4530 C.3   153  LYS153      0.1093
    126  NZ       -66.8830   -7.1100    8.5680 N.3   153  LYS153     -0.1314
    127  N        -70.6310   -4.8560    3.0940 N.am  154  SER154     -0.1936
    128  CA       -71.2070   -3.6060    2.6980 C.3   154  SER154      0.2055
    129  C        -70.0580   -2.6610    2.4460 C.2   154  SER154      0.2642
    130  O        -68.9750   -2.8030    3.0000 O.2   154  SER154     -0.2714
    131  CB       -72.1040   -3.0770    3.8190 C.3   154  SER154      0.2130
    132  OG       -72.7260   -1.8610    3.4670 O.3   154  SER154     -0.2179
    133  N        -70.3140   -1.6960    1.5810 N.am  155  GLU155     -0.1976
    134  CA       -69.3480   -0.6790    1.2360 C.3   155  GLU155      0.1602
    135  C        -69.1290    0.2290    2.4470 C.2   155  GLU155      0.2287
    136  O        -68.0100    0.5970    2.7520 O.2   155  GLU155     -0.2864
    137  CB       -69.8940    0.1110    0.0590 C.3   155  GLU155      0.0415
    138  CG       -69.0020    1.1980   -0.4620 C.3   155  GLU155      0.1163
    139  CD       -69.6350    1.9060   -1.6550 C.2   155  GLU155      0.3649
    140  OE1      -70.0110    1.2060   -2.6310 O.co2 155  GLU155     -0.2457
    141  OE2      -69.7620    3.1580   -1.6100 O.co2 155  GLU155     -0.2457
    142  N        -67.2820   -1.7220    5.3130 N.3   158  LEU158     -0.1245
    143  CA       -65.8420   -1.8050    5.1410 C.3   158  LEU158      0.1561
    144  C        -65.2530   -0.4870    5.5910 C.2   158  LEU158      0.2260
    145  O        -64.3220   -0.4500    6.3860 O.2   158  LEU158     -0.2867
    146  CB       -65.4850   -2.0500    3.6870 C.3   158  LEU158      0.0270
    147  CG       -65.5660   -3.5110    3.3070 C.3   158  LEU158      0.0019
    148  CD1      -65.4340   -3.6580    1.8100 C.3   158  LEU158      0.0001
    149  CD2      -64.4720   -4.2820    4.0340 C.3   158  LEU158      0.0001
@<TRIPOS>BOND
     1    99    98    2
     2    98    97    1
     3    97    96    1
     4    97   100    1
     5    96    91   am
     6    92    91    2
     7    91    90    1
     8    90    89    1
     9    90    93    1
    10   101   100    1
    11   101   102    1
    12    93    95    1
    13    93    94    1
    14   102   103    1
    15   103   104    2
    16    70    69    2
    17    81    80    2
    18   106   104    1
    19   104   105    1
    20    80    79    1
    21    69    68    1
    22    69    78   am
    23    68    67    1
    24    68    71    1
    25    72    71    1
    26    72    73    1
    27    14    13    2
    28    78    79    1
    29    79    82    1
    30     6     5    1
    31    76    75    1
    32    15    13   am
    33     7     5    1
    34    73    74    1
    35    13    12    1
    36     5     2    1
    37    82    83    1
    38    75    74    2
    39    75    77    1
    40    12     9    1
    41     2     3    1
    42     2     1    1
    43    61    60    2
    44    83    84    1
    45     3     8   am
    46     3     4    2
    47     8     9    1
    48    60    59    1
    49     9    10    1
    50    58    59    1
    51    59    62    1
    52    84    85    1
    53    40    39    1
    54    65    64   ar
    55    41    39    1
    56    66    64   ar
    57    57    55   ar
    58    10    11    2
    59    10    16   am
    60    64    63    1
    61    39    36    1
    62    85    86    2
    63    34    33    1
    64    62    63    1
    65    16    17    1
    66    55    56   ar
    67    55    54    1
    68    33    32    1
    69    52    51    2
    70    86    87    1
    71    86    88    1
    72    36    35    1
    73    36    37    1
    74    47    46    1
    75    35    28   am
    76    17    20    1
    77    17    18    1
    78    54    53    1
    79    22    18   am
    80    22    23    1
    81    51    50    1
    82    37    42   am
    83    37    38    2
    84    32    31    1
    85    42    43    1
    86    20    21    1
    87    18    19    2
    88    23    24    1
    89    30    31    1
    90    30    27    1
    91    26    24   am
    92    26    27    1
    93    28    27    1
    94    28    29    2
    95    46    43    1
    96    46    48    1
    97    53    50    1
    98    43    44    1
    99    24    25    2
   100    50    49    1
   101   140   139   ar
   102    44    45    2
   103   139   141   ar
   104   139   138    1
   105   110   109    2
   106   117   115    1
   107   138   137    1
   108   109   108    1
   109   109   111   am
   110   112   115    1
   111   112   111    1
   112   112   113    1
   113   115   116    1
   114   108   107    1
   115   137   134    1
   116   114   113    2
   117   113   118   am
   118   121   120    2
   119   134   133    1
   120   134   135    1
   121   133   129   am
   122   148   147    1
   123   118   119    1
   124   120   119    1
   125   120   127   am
   126   129   128    1
   127   129   130    2
   128   135   136    2
   129   128   127    1
   130   128   131    1
   131   119   122    1
   132   147   146    1
   133   147   149    1
   134   132   131    1
   135   146   143    1
   136   122   123    1
   137   123   124    1
   138   143   142    1
   139   143   144    1
   140   144   145    2
   141   124   125    1
   142   125   126    1
