@<TRIPOS>MOLECULE
tmp/2ql7A00.pdb
 74 71 0 0 0
SMALL
GASTEIGER

@<TRIPOS>ATOM
      1  N        -51.0490   19.7190  -13.5360 N.3    28  MET28      -0.1245
      2  CA       -50.9350   20.6400  -12.4060 C.3    28  MET28       0.1570
      3  C        -51.5280   22.0130  -12.7240 C.2    28  MET28       0.2261
      4  O        -51.4180   22.4990  -13.8470 O.2    28  MET28      -0.2867
      5  CB       -49.4680   20.7960  -12.0070 C.3    28  MET28       0.0387
      6  CG       -48.7670   19.4930  -11.6460 C.3    28  MET28       0.0595
      7  SD       -49.6280   18.5020  -10.3950 S.3    28  MET28      -0.1393
      8  CE       -49.3270   19.4240   -8.9120 C.3    28  MET28       0.0692
      9  N        -52.3670   26.3270  -12.0240 N.3    30  VAL30      -0.1231
     10  CA       -51.6140   27.5630  -11.8800 C.3    30  VAL30       0.1692
     11  C        -51.3880   27.8760  -10.4020 C.2    30  VAL30       0.2592
     12  O        -52.3170   27.8100   -9.5910 O.2    30  VAL30      -0.2718
     13  CB       -52.3670   28.7470  -12.5290 C.3    30  VAL30       0.0266
     14  CG1      -51.4860   29.9880  -12.5380 C.3    30  VAL30       0.0020
     15  CG2      -52.7800   28.3830  -13.9420 C.3    30  VAL30       0.0020
     16  N        -50.1500   28.2250  -10.0610 N.am   31  ARG31      -0.1966
     17  CA       -49.7900   28.5460   -8.6830 C.3    31  ARG31       0.1729
     18  C        -49.8800   30.0480   -8.4050 C.2    31  ARG31       0.2616
     19  O        -48.8700   30.7110   -8.1830 O.2    31  ARG31      -0.2715
     20  CB       -48.3740   28.0340   -8.3750 C.3    31  ARG31       0.0348
     21  CG       -48.2120   26.5220   -8.5390 C.3    31  ARG31       0.0492
     22  CD       -46.8170   26.0370   -8.1520 C.3    31  ARG31       0.2205
     23  NE       -46.4780   26.4180   -6.7840 N.pl3  31  ARG31      -0.0865
     24  CZ       -45.6380   27.3950   -6.4640 C.cat  31  ARG31       0.5346
     25  NH1      -45.0360   28.0890   -7.4140 N.pl3  31  ARG31       0.1354
     26  NH2      -45.4200   27.6960   -5.1920 N.pl3  31  ARG31       0.1354
     27  N        -51.1000   30.5760   -8.4200 N.am   32  ASN32      -0.1972
     28  CA       -51.3210   31.9920   -8.1590 C.3    32  ASN32       0.1688
     29  C        -50.7350   32.3610   -6.8070 C.2    32  ASN32       0.2292
     30  O        -50.8120   31.5860   -5.8530 O.2    32  ASN32      -0.2864
     31  CB       -52.8150   32.3170   -8.1690 C.3    32  ASN32       0.1181
     32  CG       -53.4710   31.9940   -9.4940 C.2    32  ASN32       0.2629
     33  OD1      -52.9780   32.3780  -10.5510 O.2    32  ASN32      -0.2716
     34  ND2      -54.5940   31.2890   -9.4420 N.am   32  ASN32      -0.0877
     35  N        -42.6860   25.6810   -6.4280 N.3    87  SER87      -0.1202
     36  CA       -43.3870   24.8930   -7.4310 C.3    87  SER87       0.2020
     37  C        -44.2840   23.8290   -6.8140 C.2    87  SER87       0.2619
     38  O        -44.5470   23.8320   -5.6060 O.2    87  SER87      -0.2717
     39  CB       -42.3490   24.2090   -8.3270 C.3    87  SER87       0.2103
     40  OG       -42.9440   23.3380   -9.2710 O.3    87  SER87      -0.2182
     41  N        -44.7640   22.9340   -7.6750 N.am   88  HIS88      -0.1961
     42  CA       -45.5760   21.8000   -7.2620 C.3    88  HIS88       0.1787
     43  C        -44.5330   20.7450   -6.9360 C.2    88  HIS88       0.2620
     44  O        -43.3780   20.8550   -7.3570 O.2    88  HIS88      -0.2715
     45  CB       -46.4450   21.2890   -8.4130 C.3    88  HIS88       0.0785
     46  CG       -47.6930   22.0800   -8.6340 C.ar   88  HIS88       0.0821
     47  ND1      -48.6360   22.2770   -7.6430 N.ar   88  HIS88      -0.2267
     48  CD2      -48.1710   22.7100   -9.7330 C.ar   88  HIS88       0.1154
     49  CE1      -49.6330   22.9930   -8.1240 C.ar   88  HIS88       0.1986
     50  NE2      -49.3760   23.2690   -9.3910 N.ar   88  HIS88      -0.2212
     51  N        -44.9220   19.7180   -6.2000 N.am   89  GLY89      -0.1954
     52  CA       -43.9540   18.6940   -5.8840 C.3    89  GLY89       0.1869
     53  C        -44.5550   17.5200   -5.1620 C.2    89  GLY89       0.2309
     54  O        -45.7390   17.5170   -4.8300 O.2    89  GLY89      -0.2863
     55  N        -40.4260   25.3670   -1.2930 N.3   128  GLN128     -0.1231
     56  CA       -41.8570   25.5650   -1.0780 C.3   128  GLN128      0.1698
     57  C        -42.5270   24.6490   -2.0920 C.2   128  GLN128      0.2592
     58  O        -42.5930   24.9740   -3.2790 O.2   128  GLN128     -0.2718
     59  CB       -42.2470   27.0230   -1.3410 C.3   128  GLN128      0.0381
     60  CG       -43.7440   27.2770   -1.5190 C.3   128  GLN128      0.0905
     61  CD       -44.6210   26.6910   -0.4100 C.2   128  GLN128      0.2608
     62  OE1      -44.3590   26.8760    0.7820 O.2   128  GLN128     -0.2717
     63  NE2      -45.6800   25.9940   -0.8070 N.am  128  GLN128     -0.0878
     64  N        -42.9970   23.4950   -1.6260 N.am  129  ALA129     -0.1966
     65  CA       -43.6390   22.5150   -2.5050 C.3   129  ALA129      0.1728
     66  C        -44.2350   21.3740   -1.6900 C.2   129  ALA129      0.2616
     67  O        -43.7680   21.0780   -0.5920 O.2   129  ALA129     -0.2715
     68  CB       -42.6180   21.9600   -3.4910 C.3   129  ALA129      0.0334
     69  N        -45.2570   20.7190   -2.2240 N.am  130  CYS130     -0.1968
     70  CA       -45.8760   19.6160   -1.4990 C.3   130  CYS130      0.1712
     71  C        -44.9420   18.4160   -1.4100 C.2   130  CYS130      0.2296
     72  O        -44.0660   18.2360   -2.2560 O.2   130  CYS130     -0.2864
     73  CB       -47.1840   19.2130   -2.1670 C.3   130  CYS130      0.0983
     74  SG       -48.4460   20.5130   -2.0850 S.3   130  CYS130     -0.0798
@<TRIPOS>BOND
     1    15    13    1
     2     4     3    2
     3     1     2    1
     4     3     2    1
     5    14    13    1
     6    13    10    1
     7     2     5    1
     8     9    10    1
     9     5     6    1
    10    10    11    1
    11     6     7    1
    12    33    32    2
    13    11    16   am
    14    11    12    2
    15     7     8    1
    16    16    17    1
    17    48    50   ar
    18    48    46   ar
    19    32    34   am
    20    32    31    1
    21    50    49   ar
    22    40    39    1
    23    17    18    1
    24    17    20    1
    25    46    45    1
    26    46    47   ar
    27    21    20    1
    28    21    22    1
    29    27    18   am
    30    27    28    1
    31    45    42    1
    32    18    19    2
    33    39    36    1
    34    31    28    1
    35    28    29    1
    36    22    23    1
    37    49    47   ar
    38    41    42    1
    39    41    37   am
    40    36    37    1
    41    36    35    1
    42    25    24    1
    43    44    43    2
    44    42    43    1
    45    43    51   am
    46    37    38    2
    47    29    30    2
    48    23    24    2
    49    24    26    1
    50    51    52    1
    51    52    53    1
    52    53    54    2
    53    68    65    1
    54    58    57    2
    55    65    66    1
    56    65    64    1
    57    72    71    2
    58    69    66   am
    59    69    70    1
    60    73    74    1
    61    73    70    1
    62    57    64   am
    63    57    56    1
    64    66    67    2
    65    60    59    1
    66    60    61    1
    67    70    71    1
    68    59    56    1
    69    55    56    1
    70    63    61   am
    71    61    62    2
