@<TRIPOS>MOLECULE
tmp/2ql7B00.pdb
 116 119 0 0 0
SMALL
GASTEIGER

@<TRIPOS>ATOM
      1  N        -49.0700   18.1150    2.7370 N.3    19  TYR19      -0.1227
      2  CA       -49.3650   19.1840    1.7930 C.3    19  TYR19       0.1736
      3  C        -48.6280   20.4190    2.2770 C.2    19  TYR19       0.2596
      4  O        -48.1090   20.4450    3.3920 O.2    19  TYR19      -0.2718
      5  CB       -50.8600   19.5080    1.7860 C.3    19  TYR19       0.0548
      6  CG       -51.7310   18.5720    0.9840 C.ar   19  TYR19      -0.0200
      7  CD1      -51.6440   18.5280   -0.4090 C.ar   19  TYR19      -0.0009
      8  CD2      -52.6810   17.7620    1.6120 C.ar   19  TYR19      -0.0009
      9  CE1      -52.4860   17.7070   -1.1590 C.ar   19  TYR19       0.0417
     10  CE2      -53.5270   16.9380    0.8740 C.ar   19  TYR19       0.0417
     11  CZ       -53.4250   16.9180   -0.5120 C.ar   19  TYR19       0.1957
     12  OH       -54.2760   16.1270   -1.2490 O.3    19  TYR19      -0.2866
     13  N        -48.5950   21.4410    1.4340 N.am   20  SER20      -0.1938
     14  CA       -47.9560   22.7040    1.7720 C.3    20  SER20       0.2055
     15  C        -48.9350   23.7320    1.2180 C.2    20  SER20       0.2643
     16  O        -49.2330   23.7240    0.0300 O.2    20  SER20      -0.2714
     17  CB       -46.5890   22.8070    1.0900 C.3    20  SER20       0.2130
     18  OG       -45.8280   23.8600    1.6490 O.3    20  SER20      -0.2179
     19  N        -49.4370   24.6080    2.0790 N.am   21  TRP21      -0.1959
     20  CA       -50.4390   25.5860    1.6660 C.3    21  TRP21       0.1771
     21  C        -49.9770   26.9210    1.1050 C.2    21  TRP21       0.2620
     22  O        -48.9820   27.4950    1.5460 O.2    21  TRP21      -0.2715
     23  CB       -51.4110   25.8120    2.8220 C.3    21  TRP21       0.0590
     24  CG       -51.9650   24.5160    3.3140 C.ar   21  TRP21       0.0006
     25  CD1      -51.5950   23.8410    4.4380 C.ar   21  TRP21       0.0946
     26  CD2      -52.9150   23.6810    2.6400 C.ar   21  TRP21       0.0152
     27  NE1      -52.2460   22.6370    4.5050 N.ar   21  TRP21      -0.2442
     28  CE2      -53.0630   22.5110    3.4120 C.ar   21  TRP21       0.0810
     29  CE3      -53.6490   23.8040    1.4530 C.ar   21  TRP21       0.0012
     30  CZ2      -53.9180   21.4690    3.0410 C.ar   21  TRP21       0.0191
     31  CZ3      -54.4980   22.7700    1.0800 C.ar   21  TRP21       0.0001
     32  CH2      -54.6240   21.6160    1.8730 C.ar   21  TRP21       0.0015
     33  N        -50.7360   27.4090    0.1270 N.am   22  ARG22      -0.1963
     34  CA       -50.4470   28.6690   -0.5460 C.3    22  ARG22       0.1729
     35  C        -51.6900   29.5420   -0.7140 C.2    22  ARG22       0.2617
     36  O        -52.7520   29.0620   -1.1120 O.2    22  ARG22      -0.2715
     37  CB       -49.8360   28.3820   -1.9190 C.3    22  ARG22       0.0348
     38  CG       -49.7780   29.5730   -2.8570 C.3    22  ARG22       0.0492
     39  CD       -49.0200   29.2130   -4.1280 C.3    22  ARG22       0.2205
     40  NE       -49.4690   27.9420   -4.6930 N.pl3  22  ARG22      -0.0865
     41  CZ       -50.6580   27.7410   -5.2590 C.cat  22  ARG22       0.5346
     42  NH1      -51.5350   28.7340   -5.3480 N.pl3  22  ARG22       0.1354
     43  NH2      -50.9760   26.5400   -5.7250 N.pl3  22  ARG22       0.1354
     44  N        -51.5480   30.8270   -0.4040 N.am   23  SER23      -0.1936
     45  CA       -52.6440   31.7800   -0.5380 C.3    23  SER23       0.2040
     46  C        -52.4850   32.5470   -1.8460 C.2    23  SER23       0.2485
     47  O        -51.5060   33.2610   -2.0330 O.2    23  SER23      -0.2729
     48  CB       -52.6380   32.7680    0.6270 C.3    23  SER23       0.2129
     49  OG       -53.4680   33.8810    0.3410 O.3    23  SER23      -0.2179
     50  N        -53.4550   32.4110   -2.7660 N.am   24  PRO24      -0.2726
     51  CA       -53.4490   33.0790   -4.0740 C.3    24  PRO24       0.1402
     52  C        -53.2360   34.5950   -4.0380 C.2    24  PRO24       0.2269
     53  O        -52.6390   35.1620   -4.9540 O.2    24  PRO24      -0.2865
     54  CB       -54.8140   32.7100   -4.6550 C.3    24  PRO24       0.0296
     55  CG       -55.0760   31.3660   -4.0650 C.3    24  PRO24       0.0237
     56  CD       -54.6490   31.5590   -2.6250 C.3    24  PRO24       0.0939
     57  N        -47.6110   31.8120   -0.3810 N.3    28  SER28      -0.1202
     58  CA       -47.5450   30.6460    0.4970 C.3    28  SER28       0.2020
     59  C        -47.2020   31.0210    1.9400 C.2    28  SER28       0.2618
     60  O        -46.5460   32.0340    2.1990 O.2    28  SER28      -0.2717
     61  CB       -46.5200   29.6410   -0.0310 C.3    28  SER28       0.2103
     62  OG       -45.2070   30.1700    0.0180 O.3    28  SER28      -0.2182
     63  N        -47.6580   30.1960    2.8770 N.am   29  TRP29      -0.1975
     64  CA       -47.4130   30.4230    4.2960 C.3    29  TRP29       0.1640
     65  C        -45.9190   30.4810    4.6290 C.2    29  TRP29       0.2290
     66  O        -45.4460   31.4250    5.2610 O.2    29  TRP29      -0.2864
     67  CB       -48.0780   29.3120    5.1280 C.3    29  TRP29       0.0576
     68  CG       -49.5920   29.2790    5.0560 C.ar   29  TRP29       0.0006
     69  CD1      -50.4080   30.1530    4.3900 C.ar   29  TRP29       0.0946
     70  CD2      -50.4650   28.3410    5.7080 C.ar   29  TRP29       0.0152
     71  NE1      -51.7270   29.8220    4.5890 N.ar   29  TRP29      -0.2442
     72  CE2      -51.7920   28.7140    5.3920 C.ar   29  TRP29       0.0810
     73  CE3      -50.2530   27.2230    6.5270 C.ar   29  TRP29       0.0012
     74  CZ2      -52.9060   28.0090    5.8730 C.ar   29  TRP29       0.0191
     75  CZ3      -51.3610   26.5210    7.0060 C.ar   29  TRP29       0.0001
     76  CH2      -52.6690   26.9190    6.6750 C.ar   29  TRP29       0.0015
     77  N        -55.8200   27.1930    7.5690 N.3    64  SER64      -0.1202
     78  CA       -56.5820   27.2520    6.3270 C.3    64  SER64       0.2020
     79  C        -58.0620   27.6000    6.4110 C.2    64  SER64       0.2619
     80  O        -58.6930   27.5430    7.4700 O.2    64  SER64      -0.2717
     81  CB       -56.4290   25.9390    5.5460 C.3    64  SER64       0.2103
     82  OG       -57.1990   24.8960    6.1150 O.3    64  SER64      -0.2182
     83  N        -58.5920   27.9650    5.2500 N.am   65  GLN65      -0.1965
     84  CA       -59.9890   28.3220    5.0680 C.3    65  GLN65       0.1733
     85  C        -60.3410   27.9030    3.6450 C.2    65  GLN65       0.2617
     86  O        -59.7810   28.4290    2.6810 O.2    65  GLN65      -0.2715
     87  CB       -60.1850   29.8310    5.2360 C.3    65  GLN65       0.0408
     88  CG       -60.2360   30.3010    6.6810 C.3    65  GLN65       0.0908
     89  CD       -61.4090   29.7040    7.4410 C.2    65  GLN65       0.2608
     90  OE1      -61.4540   28.4970    7.6890 O.2    65  GLN65      -0.2717
     91  NE2      -62.3700   30.5480    7.8080 N.am   65  GLN65      -0.0878
     92  N        -61.2540   26.9460    3.5120 N.am   66  SER66      -0.1936
     93  CA       -61.6510   26.4640    2.1960 C.3    66  SER66       0.2055
     94  C        -63.1110   26.0190    2.1610 C.2    66  SER66       0.2643
     95  O        -63.6990   25.6950    3.1950 O.2    66  SER66      -0.2714
     96  CB       -60.7430   25.3050    1.7740 C.3    66  SER66       0.2130
     97  OG       -61.1120   24.7910    0.5070 O.3    66  SER66      -0.2179
     98  N        -63.6900   26.0140    0.9630 N.am   67  ASP67      -0.1971
     99  CA       -65.0770   25.6040    0.7820 C.3    67  ASP67       0.1709
    100  C        -65.1900   24.1040    1.0140 C.2    67  ASP67       0.2293
    101  O        -66.1660   23.6260    1.5890 O.2    67  ASP67      -0.2864
    102  CB       -65.5600   25.9480   -0.6290 C.3    67  ASP67       0.1436
    103  CG       -65.5040   27.4380   -0.9180 C.2    67  ASP67       0.3671
    104  OD1      -66.0810   28.2220   -0.1320 O.co2  67  ASP67      -0.2456
    105  OD2      -64.8870   27.8230   -1.9350 O.co2  67  ASP67      -0.2456
    106  N        -60.3530   20.5050    3.2990 N.3    71  PHE71      -0.1241
    107  CA       -59.2430   21.4590    3.2460 C.3    71  PHE71       0.1605
    108  C        -59.5030   22.5910    4.2410 C.2    71  PHE71       0.2264
    109  O        -58.7740   23.5830    4.2830 O.2    71  PHE71      -0.2867
    110  CB       -59.1270   22.0450    1.8320 C.3    71  PHE71       0.0534
    111  CG       -58.3010   21.2170    0.8860 C.ar   71  PHE71      -0.0203
    112  CD1      -58.1710   19.8400    1.0600 C.ar   71  PHE71      -0.0042
    113  CD2      -57.6590   21.8170   -0.1940 C.ar   71  PHE71      -0.0042
    114  CE1      -57.4160   19.0750    0.1710 C.ar   71  PHE71      -0.0003
    115  CE2      -56.9050   21.0610   -1.0880 C.ar   71  PHE71      -0.0003
    116  CZ       -56.7820   19.6870   -0.9020 C.ar   71  PHE71      -0.0000
@<TRIPOS>BOND
     1    43    41    1
     2    42    41    1
     3    41    40    2
     4    53    52    2
     5    40    39    1
     6    54    51    1
     7    54    55    1
     8    39    38    1
     9    51    52    1
    10    51    50    1
    11    55    56    1
    12    38    37    1
    13    50    56    1
    14    50    46   am
    15    47    46    2
    16   105   103   ar
    17    37    34    1
    18    46    45    1
    19    12    11    1
    20     9    11   ar
    21     9     7   ar
    22    36    35    2
    23   115   116   ar
    24   115   113   ar
    25   103   102    1
    26   103   104   ar
    27   116   114   ar
    28    35    34    1
    29    35    44   am
    30   102    99    1
    31    34    33    1
    32    45    44    1
    33    45    48    1
    34    11    10   ar
    35     7     6   ar
    36    57    58    1
    37   113   111   ar
    38    61    62    1
    39    61    58    1
    40    16    15    2
    41    33    21   am
    42   114   112   ar
    43    49    48    1
    44    58    59    1
    45    97    96    1
    46    99    98    1
    47    99   100    1
    48    10     8   ar
    49   111   112   ar
    50   111   110    1
    51    98    94   am
    52     6     8   ar
    53     6     5    1
    54   100   101    2
    55    31    29   ar
    56    31    32   ar
    57    17    18    1
    58    17    14    1
    59    21    22    2
    60    21    20    1
    61    15    14    1
    62    15    19   am
    63    13    14    1
    64    13     3   am
    65    29    26   ar
    66    20    19    1
    67    20    23    1
    68    96    93    1
    69     5     2    1
    70     2     3    1
    71     2     1    1
    72   110   107    1
    73    32    30   ar
    74    59    60    2
    75    59    63   am
    76    94    93    1
    77    94    95    2
    78    93    92    1
    79     3     4    2
    80    26    24   ar
    81    26    28   ar
    82    86    85    2
    83    23    24    1
    84    63    64    1
    85    30    28   ar
    86   107   106    1
    87   107   108    1
    88    24    25   ar
    89    28    27   ar
    90    92    85   am
    91    85    84    1
    92   108   109    2
    93    64    65    1
    94    64    67    1
    95    69    71   ar
    96    69    68   ar
    97    25    27   ar
    98    71    72   ar
    99    65    66    2
   100    68    67    1
   101    68    70   ar
   102    84    87    1
   103    84    83    1
   104    87    88    1
   105    83    79   am
   106    72    70   ar
   107    72    74   ar
   108    81    82    1
   109    81    78    1
   110    70    73   ar
   111    74    76   ar
   112    78    79    1
   113    78    77    1
   114    79    80    2
   115    73    75   ar
   116    76    75   ar
   117    88    89    1
   118    89    90    2
   119    89    91   am
