@<TRIPOS>MOLECULE
tmp/2ql9C00.pdb
 77 72 0 0 0
SMALL
GASTEIGER

@<TRIPOS>ATOM
      1  N        -28.0640   -9.7520    9.8790 N.3    28  MET28      -0.1245
      2  CA       -27.3100   -8.7120   10.5750 C.3    28  MET28       0.1570
      3  C        -26.3430   -9.3040   11.5910 C.2    28  MET28       0.2261
      4  O        -26.6910  -10.2240   12.3240 O.2    28  MET28      -0.2867
      5  CB       -28.2640   -7.7470   11.2880 C.3    28  MET28       0.0387
      6  CG       -29.1670   -6.9480   10.3600 C.3    28  MET28       0.0595
      7  SD       -28.2310   -5.9420    9.1890 S.3    28  MET28      -0.1393
      8  CE       -28.3720   -6.9440    7.7310 C.3    28  MET28       0.0692
      9  N        -23.4390   -9.0690   14.8870 N.3    30  VAL30      -0.1231
     10  CA       -23.4140   -8.4950   16.2270 C.3    30  VAL30       0.1692
     11  C        -22.8430   -7.0840   16.1250 C.2    30  VAL30       0.2592
     12  O        -21.9120   -6.8380   15.3600 O.2    30  VAL30      -0.2718
     13  CB       -22.5250   -9.3300   17.1780 C.3    30  VAL30       0.0266
     14  CG1      -22.6440   -8.8080   18.5930 C.3    30  VAL30       0.0020
     15  CG2      -22.9370  -10.7840   17.1300 C.3    30  VAL30       0.0020
     16  N        -23.4010   -6.1570   16.8930 N.am   31  ARG31      -0.1966
     17  CA       -22.9330   -4.7770   16.8610 C.3    31  ARG31       0.1729
     18  C        -21.9370   -4.5070   17.9870 C.2    31  ARG31       0.2616
     19  O        -22.2370   -3.7920   18.9420 O.2    31  ARG31      -0.2715
     20  CB       -24.1300   -3.8130   16.9470 C.3    31  ARG31       0.0348
     21  CG       -25.0870   -3.9310   15.7530 C.3    31  ARG31       0.0492
     22  CD       -26.2310   -2.9120   15.8000 C.3    31  ARG31       0.2205
     23  NE       -25.7360   -1.5370   15.8080 N.pl3  31  ARG31      -0.0865
     24  CZ       -25.7400   -0.7420   16.8750 C.cat  31  ARG31       0.5346
     25  NH1      -26.2270   -1.1710   18.0370 N.pl3  31  ARG31       0.1354
     26  NH2      -25.2280    0.4750   16.7900 N.pl3  31  ARG31       0.1354
     27  N        -20.7490   -5.0930   17.8750 N.am   32  ASN32      -0.1972
     28  CA       -19.7120   -4.8970   18.8830 C.3    32  ASN32       0.1688
     29  C        -19.4130   -3.4150   19.0680 C.2    32  ASN32       0.2292
     30  O        -19.2570   -2.6760   18.0940 O.2    32  ASN32      -0.2864
     31  CB       -18.4340   -5.6370   18.4870 C.3    32  ASN32       0.1181
     32  CG       -18.6050   -7.1400   18.5170 C.2    32  ASN32       0.2629
     33  OD1      -19.0410   -7.7050   19.5210 O.2    32  ASN32      -0.2716
     34  ND2      -18.2640   -7.7960   17.4150 N.am   32  ASN32      -0.0877
     35  N        -28.8980    0.5960   16.6950 N.3    87  SER87      -0.1202
     36  CA       -29.1600   -0.6500   15.9930 C.3    87  SER87       0.2020
     37  C        -28.7440   -0.5450   14.5360 C.2    87  SER87       0.2619
     38  O        -28.1490    0.4510   14.1110 O.2    87  SER87      -0.2717
     39  CB       -30.6630   -0.9570   16.0710 C.3    87  SER87       0.2103
     40  OG       -30.9780   -2.2250   15.5320 O.3    87  SER87      -0.2182
     41  N        -29.0410   -1.5950   13.7780 N.am   88  HIS88      -0.1961
     42  CA       -28.7580   -1.6010   12.3530 C.3    88  HIS88       0.1787
     43  C        -29.9330   -0.8420   11.7620 C.2    88  HIS88       0.2620
     44  O        -30.9500   -0.6340   12.4330 O.2    88  HIS88      -0.2715
     45  CB       -28.7640   -3.0240   11.7930 C.3    88  HIS88       0.0785
     46  CG       -27.5160   -3.7980   12.0790 C.ar   88  HIS88       0.0821
     47  ND1      -26.3080   -3.5040   11.4880 N.ar   88  HIS88      -0.2267
     48  CD2      -27.3010   -4.8800   12.8640 C.ar   88  HIS88       0.1154
     49  CE1      -25.4010   -4.3740   11.8930 C.ar   88  HIS88       0.1986
     50  NE2      -25.9740   -5.2200   12.7280 N.ar   88  HIS88      -0.2212
     51  N        -29.7990   -0.4290   10.5100 N.am   89  GLY89      -0.1954
     52  CA       -30.8840    0.2810    9.8780 C.3    89  GLY89       0.1869
     53  C        -30.6680    0.3790    8.3900 C.2    89  GLY89       0.2309
     54  O        -29.5790    0.0980    7.8920 O.2    89  GLY89      -0.2863
     55  N        -28.5470    6.1550   15.9420 N.3   128  GLN128     -0.1245
     56  CA       -27.2950    5.5840   15.4530 C.3   128  GLN128      0.1566
     57  C        -27.7050    4.3090   14.7100 C.2   128  GLN128      0.2260
     58  O        -28.0700    3.3070   15.3220 O.2   128  GLN128     -0.2867
     59  CB       -26.3670    5.2260   16.6140 C.3   128  GLN128      0.0367
     60  CG       -25.1580    4.3710   16.2070 C.3   128  GLN128      0.0905
     61  CD       -24.3560    4.9940   15.0720 C.2   128  GLN128      0.2608
     62  OE1      -23.9900    6.1720   15.1250 O.2   128  GLN128     -0.2717
     63  NE2      -24.0750    4.2040   14.0420 N.am  128  GLN128     -0.0878
     64  N        -27.5760    2.6450   10.2450 N.3   130  CYS130     -0.1235
     65  CA       -27.3230    2.9400    8.8430 C.3   130  CYS130      0.1677
     66  C        -28.6260    3.3900    8.1880 C.2   130  CYS130      0.2270
     67  O        -29.7230    3.1200    8.6910 O.2   130  CYS130     -0.2867
     68  CB       -26.7610    1.7180    8.1170 C.3   130  CYS130      0.0956
     69  SG       -25.1070    1.2140    8.6930 S.3   130  CYS130     -0.0801
     70  N        -21.2400    5.0410    0.5430 N.3   135  LEU135     -0.1245
     71  CA       -20.0330    5.3800    1.2830 C.3   135  LEU135      0.1561
     72  C        -19.5860    6.7850    0.9180 C.2   135  LEU135      0.2260
     73  O        -19.7370    7.2130   -0.2260 O.2   135  LEU135     -0.2867
     74  CB       -18.9150    4.3910    0.9510 C.3   135  LEU135      0.0270
     75  CG       -19.1310    2.9650    1.4550 C.3   135  LEU135      0.0019
     76  CD1      -18.1590    2.0110    0.7730 C.3   135  LEU135      0.0001
     77  CD2      -18.9570    2.9410    2.9660 C.3   135  LEU135      0.0001
@<TRIPOS>BOND
     1    73    72    2
     2    70    71    1
     3    76    75    1
     4    72    71    1
     5    74    71    1
     6    74    75    1
     7    75    77    1
     8     8     7    1
     9    54    53    2
    10    68    69    1
    11    68    65    1
    12    66    67    2
    13    66    65    1
    14    53    52    1
    15    65    64    1
    16     7     6    1
    17    52    51    1
    18     1     2    1
    19     6     5    1
    20    51    43   am
    21     2     5    1
    22     2     3    1
    23    47    49   ar
    24    47    46   ar
    25     3     4    2
    26    43    42    1
    27    43    44    2
    28    45    46    1
    29    45    42    1
    30    49    50   ar
    31    46    48   ar
    32    42    41    1
    33    50    48   ar
    34    41    37   am
    35    63    61   am
    36    38    37    2
    37    37    36    1
    38    57    58    2
    39    57    56    1
    40     9    10    1
    41    61    62    2
    42    61    60    1
    43    12    11    2
    44    56    55    1
    45    56    59    1
    46    40    39    1
    47    21    22    1
    48    21    20    1
    49    22    23    1
    50    23    24    2
    51    36    39    1
    52    36    35    1
    53    11    10    1
    54    11    16   am
    55    60    59    1
    56    10    13    1
    57    26    24    1
    58    17    16    1
    59    17    20    1
    60    17    18    1
    61    24    25    1
    62    15    13    1
    63    13    14    1
    64    34    32   am
    65    27    18   am
    66    27    28    1
    67    18    19    2
    68    30    29    2
    69    31    32    1
    70    31    28    1
    71    32    33    2
    72    28    29    1
