@<TRIPOS>MOLECULE
tmp/2ql9D00.pdb
 125 128 0 0 0
SMALL
GASTEIGER

@<TRIPOS>ATOM
      1  N        -24.1400    4.7100    4.9400 N.3    19  TYR19      -0.1227
      2  CA       -23.7790    3.8460    6.0550 C.3    19  TYR19       0.1736
      3  C        -23.4530    4.7600    7.2230 C.2    19  TYR19       0.2596
      4  O        -23.3100    5.9770    7.0520 O.2    19  TYR19      -0.2718
      5  CB       -22.5050    3.0530    5.7520 C.3    19  TYR19       0.0548
      6  CG       -22.6630    1.8170    4.8960 C.ar   19  TYR19      -0.0200
      7  CD1      -23.4870    0.7680    5.2960 C.ar   19  TYR19      -0.0009
      8  CD2      -21.9300    1.6680    3.7180 C.ar   19  TYR19      -0.0009
      9  CE1      -23.5740   -0.4070    4.5430 C.ar   19  TYR19       0.0417
     10  CE2      -22.0090    0.4980    2.9580 C.ar   19  TYR19       0.0417
     11  CZ       -22.8300   -0.5330    3.3780 C.ar   19  TYR19       0.1957
     12  OH       -22.9030   -1.6920    2.6400 O.3    19  TYR19      -0.2866
     13  N        -23.3160    4.1570    8.3990 N.am   20  SER20      -0.1938
     14  CA       -22.9540    4.8670    9.6200 C.3    20  SER20       0.2055
     15  C        -21.8710    3.9920   10.2450 C.2    20  SER20       0.2643
     16  O        -22.0270    2.7740   10.3080 O.2    20  SER20      -0.2714
     17  CB       -24.1550    4.9880   10.5580 C.3    20  SER20       0.2130
     18  OG       -23.8150    5.7780   11.6810 O.3    20  SER20      -0.2179
     19  N        -20.7840    4.6060   10.7040 N.am   21  TRP21      -0.1959
     20  CA       -19.6610    3.8550   11.2620 C.3    21  TRP21       0.1771
     21  C        -19.6030    3.6340   12.7710 C.2    21  TRP21       0.2620
     22  O        -19.9850    4.4960   13.5670 O.2    21  TRP21      -0.2715
     23  CB       -18.3400    4.4790   10.7850 C.3    21  TRP21       0.0590
     24  CG       -18.1670    4.3740    9.2980 C.ar   21  TRP21       0.0006
     25  CD1      -18.6200    5.2480    8.3540 C.ar   21  TRP21       0.0946
     26  CD2      -17.5570    3.2920    8.5820 C.ar   21  TRP21       0.0152
     27  NE1      -18.3350    4.7760    7.0920 N.ar   21  TRP21      -0.2442
     28  CE2      -17.6810    3.5740    7.2040 C.ar   21  TRP21       0.0810
     29  CE3      -16.9210    2.1020    8.9730 C.ar   21  TRP21       0.0012
     30  CZ2      -17.1930    2.7160    6.2110 C.ar   21  TRP21       0.0191
     31  CZ3      -16.4330    1.2450    7.9830 C.ar   21  TRP21       0.0001
     32  CH2      -16.5740    1.5590    6.6180 C.ar   21  TRP21       0.0015
     33  N        -19.0920    2.4620   13.1440 N.am   22  ARG22      -0.1963
     34  CA       -18.9630    2.0600   14.5390 C.3    22  ARG22       0.1729
     35  C        -17.6410    1.3190   14.7750 C.2    22  ARG22       0.2617
     36  O        -17.2500    0.4590   13.9830 O.2    22  ARG22      -0.2715
     37  CB       -20.1490    1.1590   14.9060 C.3    22  ARG22       0.0348
     38  CG       -20.0560    0.4240   16.2400 C.3    22  ARG22       0.0492
     39  CD       -21.3710   -0.3400   16.5150 C.3    22  ARG22       0.2205
     40  NE       -21.8740   -1.0210   15.3190 N.pl3  22  ARG22      -0.0865
     41  CZ       -21.3420   -2.1250   14.7980 C.cat  22  ARG22       0.5346
     42  NH1      -20.2900   -2.6950   15.3690 N.pl3  22  ARG22       0.1354
     43  NH2      -21.8400   -2.6430   13.6850 N.pl3  22  ARG22       0.1354
     44  N        -16.9480    1.6720   15.8540 N.am   23  SER23      -0.1936
     45  CA       -15.6890    1.0240   16.2130 C.3    23  SER23       0.2040
     46  C        -15.9900    0.0430   17.3340 C.2    23  SER23       0.2485
     47  O        -16.4320    0.4440   18.4080 O.2    23  SER23      -0.2729
     48  CB       -14.6590    2.0440   16.7160 C.3    23  SER23       0.2129
     49  OG       -14.2840    2.9440   15.6890 O.3    23  SER23      -0.2179
     50  N        -15.7560   -1.2570   17.0980 N.am   24  PRO24      -0.2726
     51  CA       -16.0120   -2.2870   18.1100 C.3    24  PRO24       0.1402
     52  C        -15.3460   -1.9540   19.4400 C.2    24  PRO24       0.2269
     53  O        -15.8430   -2.3190   20.5050 O.2    24  PRO24      -0.2865
     54  CB       -15.4300   -3.5500   17.4730 C.3    24  PRO24       0.0296
     55  CG       -15.6290   -3.3120   16.0060 C.3    24  PRO24       0.0237
     56  CD       -15.2210   -1.8560   15.8620 C.3    24  PRO24       0.0939
     57  N        -19.7810    3.7580   18.3080 N.3    28  SER28      -0.1202
     58  CA       -20.0630    4.4770   17.0770 C.3    28  SER28       0.2020
     59  C        -19.4680    5.8850   17.1110 C.2    28  SER28       0.2618
     60  O        -19.3870    6.5120   18.1620 O.2    28  SER28      -0.2717
     61  CB       -21.5710    4.5400   16.8380 C.3    28  SER28       0.2103
     62  OG       -22.2260    5.2400   17.8750 O.3    28  SER28      -0.2182
     63  N        -19.0380    6.3680   15.9540 N.am   29  TRP29      -0.1975
     64  CA       -18.4480    7.6940   15.8560 C.3    29  TRP29       0.1640
     65  C        -19.4020    8.7690   16.3830 C.2    29  TRP29       0.2290
     66  O        -19.0080    9.6340   17.1660 O.2    29  TRP29      -0.2864
     67  CB       -18.0990    8.0060   14.3990 C.3    29  TRP29       0.0576
     68  CG       -17.0720    7.1000   13.7850 C.ar   29  TRP29       0.0006
     69  CD1      -16.3550    6.1100   14.4080 C.ar   29  TRP29       0.0946
     70  CD2      -16.6310    7.1220   12.4270 C.ar   29  TRP29       0.0152
     71  NE1      -15.4890    5.5210   13.5150 N.ar   29  TRP29      -0.2442
     72  CE2      -15.6320    6.1290   12.2900 C.ar   29  TRP29       0.0810
     73  CE3      -16.9680    7.8960   11.3070 C.ar   29  TRP29       0.0012
     74  CZ2      -14.9820    5.8770   11.0770 C.ar   29  TRP29       0.0191
     75  CZ3      -16.3210    7.6490   10.0960 C.ar   29  TRP29       0.0001
     76  CH2      -15.3330    6.6520    9.9950 C.ar   29  TRP29       0.0015
     77  N        -12.2080    8.6780   10.4460 N.3    63  GLU63      -0.1231
     78  CA       -11.9540    8.1320    9.1190 C.3    63  GLU63       0.1699
     79  C        -11.9190    6.6220    9.3060 C.2    63  GLU63       0.2593
     80  O        -11.2670    6.1250   10.2200 O.2    63  GLU63      -0.2718
     81  CB       -10.6170    8.6390    8.5700 C.3    63  GLU63       0.0402
     82  CG       -10.4800    8.4740    7.0660 C.3    63  GLU63       0.1161
     83  CD        -9.2420    9.1540    6.5050 C.2    63  GLU63       0.3649
     84  OE1       -9.0620   10.3680    6.7470 O.co2  63  GLU63      -0.2457
     85  OE2       -8.4530    8.4740    5.8170 O.co2  63  GLU63      -0.2457
     86  N        -12.6300    5.8920    8.4560 N.am   64  SER64      -0.1938
     87  CA       -12.6740    4.4440    8.5920 C.3    64  SER64       0.2055
     88  C        -11.3790    3.7650    8.1810 C.2    64  SER64       0.2643
     89  O        -10.6210    4.2740    7.3570 O.2    64  SER64      -0.2714
     90  CB       -13.8190    3.8550    7.7660 C.3    64  SER64       0.2130
     91  OG       -13.4860    3.8160    6.3910 O.3    64  SER64      -0.2179
     92  N        -11.1340    2.6070    8.7770 N.am   65  GLN65      -0.1963
     93  CA        -9.9580    1.8200    8.4590 C.3    65  GLN65       0.1733
     94  C        -10.3620    0.3590    8.4410 C.2    65  GLN65       0.2617
     95  O        -10.8680   -0.1760    9.4290 O.2    65  GLN65      -0.2715
     96  CB        -8.8450    2.0760    9.4730 C.3    65  GLN65       0.0408
     97  CG        -9.3200    2.3030   10.8840 C.3    65  GLN65       0.0908
     98  CD        -8.4160    3.2630   11.6250 C.2    65  GLN65       0.2608
     99  OE1       -8.2720    4.4230   11.2300 O.2    65  GLN65      -0.2717
    100  NE2       -7.7940    2.7880   12.6990 N.am   65  GLN65      -0.0878
    101  N        -10.1560   -0.2700    7.2900 N.am   66  SER66      -0.1936
    102  CA       -10.5040   -1.6670    7.0950 C.3    66  SER66       0.2055
    103  C         -9.4300   -2.3280    6.2400 C.2    66  SER66       0.2643
    104  O         -8.8260   -1.6800    5.3830 O.2    66  SER66      -0.2714
    105  CB       -11.8640   -1.7630    6.3960 C.3    66  SER66       0.2130
    106  OG       -12.2410   -3.1090    6.1740 O.3    66  SER66      -0.2179
    107  N         -9.1840   -3.6130    6.4830 N.am   67  ASP67      -0.1971
    108  CA        -8.1880   -4.3480    5.7170 C.3    67  ASP67       0.1709
    109  C         -8.6320   -4.3640    4.2620 C.2    67  ASP67       0.2293
    110  O         -7.8260   -4.5720    3.3550 O.2    67  ASP67      -0.2864
    111  CB        -8.0580   -5.7790    6.2450 C.3    67  ASP67       0.1436
    112  CG        -7.5760   -5.8280    7.6850 C.2    67  ASP67       0.3671
    113  OD1       -8.2860   -5.3050    8.5710 O.co2  67  ASP67      -0.2456
    114  OD2       -6.4860   -6.3880    7.9320 O.co2  67  ASP67      -0.2456
    115  N        -13.5620   -0.3210    1.8920 N.3    71  PHE71      -0.1241
    116  CA       -14.1410    0.3830    3.0310 C.3    71  PHE71       0.1605
    117  C        -13.0630    1.0920    3.8330 C.2    71  PHE71       0.2264
    118  O        -13.2070    1.2950    5.0370 O.2    71  PHE71      -0.2867
    119  CB       -14.8740   -0.5930    3.9510 C.3    71  PHE71       0.0534
    120  CG       -15.9020   -1.4270    3.2600 C.ar   71  PHE71      -0.0203
    121  CD1      -15.5630   -2.6600    2.7150 C.ar   71  PHE71      -0.0042
    122  CD2      -17.2100   -0.9750    3.1370 C.ar   71  PHE71      -0.0042
    123  CE1      -16.5170   -3.4410    2.0660 C.ar   71  PHE71      -0.0003
    124  CE2      -18.1720   -1.7460    2.4890 C.ar   71  PHE71      -0.0003
    125  CZ       -17.8240   -2.9800    1.9500 C.ar   71  PHE71      -0.0000
@<TRIPOS>BOND
     1   115   116    1
     2   125   123   ar
     3   125   124   ar
     4   123   121   ar
     5   124   122   ar
     6    12    11    1
     7   121   120   ar
     8    10    11   ar
     9    10     8   ar
    10   116   117    1
    11   116   119    1
    12   122   120   ar
    13   120   119    1
    14   110   109    2
    15    11     9   ar
    16     8     6   ar
    17   117   118    2
    18   109   108    1
    19     9     7   ar
    20     6     7   ar
    21     6     5    1
    22     1     2    1
    23   104   103    2
    24   108   111    1
    25   108   107    1
    26     5     2    1
    27    85    83   ar
    28     2     3    1
    29   106   105    1
    30    30    32   ar
    31    30    28   ar
    32   103   107   am
    33   103   102    1
    34   111   112    1
    35    91    90    1
    36   105   102    1
    37    83    84   ar
    38    83    82    1
    39    32    31   ar
    40     4     3    2
    41    82    81    1
    42    27    28   ar
    43    27    25   ar
    44   102   101    1
    45    28    26   ar
    46     3    13   am
    47   101    94   am
    48    89    88    2
    49   112   114   ar
    50   112   113   ar
    51    90    87    1
    52    31    29   ar
    53    88    87    1
    54    88    92   am
    55    25    24   ar
    56    13    14    1
    57    94    93    1
    58    94    95    2
    59    86    87    1
    60    86    79   am
    61    93    92    1
    62    93    96    1
    63    81    78    1
    64    26    29   ar
    65    26    24   ar
    66    78    79    1
    67    78    77    1
    68    24    23    1
    69    79    80    2
    70    96    97    1
    71    14    15    1
    72    14    17    1
    73    76    75   ar
    74    76    74   ar
    75    75    73   ar
    76    15    16    2
    77    15    19   am
    78    17    18    1
    79    19    20    1
    80    23    20    1
    81    97    98    1
    82    74    72   ar
    83    99    98    2
    84    20    21    1
    85    73    70   ar
    86    98   100   am
    87    72    70   ar
    88    72    71   ar
    89    70    68   ar
    90    21    33   am
    91    21    22    2
    92    33    34    1
    93    71    69   ar
    94    43    41    1
    95    68    67    1
    96    68    69   ar
    97    36    35    2
    98    67    64    1
    99    34    35    1
   100    34    37    1
   101    35    44   am
   102    41    40    2
   103    41    42    1
   104    37    38    1
   105    40    39    1
   106    49    48    1
   107    44    45    1
   108    64    63    1
   109    64    65    1
   110    56    55    1
   111    56    50    1
   112    63    59   am
   113    55    54    1
   114    45    48    1
   115    45    46    1
   116    38    39    1
   117    65    66    2
   118    61    58    1
   119    61    62    1
   120    58    59    1
   121    58    57    1
   122    50    46   am
   123    50    51    1
   124    59    60    2
   125    46    47    2
   126    54    51    1
   127    51    52    1
   128    52    53    2
