@<TRIPOS>MOLECULE
tmp/2qlbD00.pdb
 139 142 0 0 0
SMALL
GASTEIGER

@<TRIPOS>ATOM
      1  N        -71.9780   19.2520  -26.2750 N.3    19  TYR19      -0.1227
      2  CA       -72.9110   19.4150  -25.1660 C.3    19  TYR19       0.1736
      3  C        -72.3020   18.6860  -23.9790 C.2    19  TYR19       0.2596
      4  O        -71.3280   17.9430  -24.1240 O.2    19  TYR19      -0.2718
      5  CB       -74.2560   18.7380  -25.4560 C.3    19  TYR19       0.0548
      6  CG       -75.2600   19.5290  -26.2620 C.ar   19  TYR19      -0.0200
      7  CD1      -75.7590   20.7490  -25.7990 C.ar   19  TYR19      -0.0009
      8  CD2      -75.7570   19.0270  -27.4700 C.ar   19  TYR19      -0.0009
      9  CE1      -76.7320   21.4500  -26.5180 C.ar   19  TYR19       0.0417
     10  CE2      -76.7290   19.7170  -28.1970 C.ar   19  TYR19       0.0417
     11  CZ       -77.2120   20.9260  -27.7150 C.ar   19  TYR19       0.1957
     12  OH       -78.1760   21.5990  -28.4290 O.3    19  TYR19      -0.2866
     13  N        -72.8910   18.9010  -22.8110 N.am   20  SER20      -0.1938
     14  CA       -72.4650   18.2310  -21.5970 C.3    20  SER20       0.2055
     15  C        -73.7580   17.6900  -20.9920 C.2    20  SER20       0.2643
     16  O        -74.7660   18.3980  -20.9470 O.2    20  SER20      -0.2714
     17  CB       -71.7890   19.2060  -20.6380 C.3    20  SER20       0.2130
     18  OG       -71.3190   18.4980  -19.5060 O.3    20  SER20      -0.2179
     19  N        -73.7370   16.4440  -20.5310 N.am   21  TRP21      -0.1959
     20  CA       -74.9420   15.8350  -19.9840 C.3    21  TRP21       0.1771
     21  C        -75.1120   15.9180  -18.4770 C.2    21  TRP21       0.2620
     22  O        -74.1500   15.8120  -17.7160 O.2    21  TRP21      -0.2715
     23  CB       -75.0460   14.3780  -20.4480 C.3    21  TRP21       0.0590
     24  CG       -75.2190   14.2690  -21.9380 C.ar   21  TRP21       0.0006
     25  CD1      -74.2320   14.1430  -22.8740 C.ar   21  TRP21       0.0946
     26  CD2      -76.4560   14.3310  -22.6660 C.ar   21  TRP21       0.0152
     27  NE1      -74.7760   14.1210  -24.1380 N.ar   21  TRP21      -0.2442
     28  CE2      -76.1380   14.2330  -24.0400 C.ar   21  TRP21       0.0810
     29  CE3      -77.8010   14.4580  -22.2900 C.ar   21  TRP21       0.0012
     30  CZ2      -77.1170   14.2610  -25.0420 C.ar   21  TRP21       0.0191
     31  CZ3      -78.7760   14.4870  -23.2880 C.ar   21  TRP21       0.0001
     32  CH2      -78.4250   14.3870  -24.6480 C.ar   21  TRP21       0.0015
     33  N        -76.3630   16.0970  -18.0660 N.am   22  ARG22      -0.1963
     34  CA       -76.7230   16.2220  -16.6620 C.3    22  ARG22       0.1729
     35  C        -78.0230   15.4830  -16.3610 C.2    22  ARG22       0.2617
     36  O        -79.0090   15.6130  -17.0840 O.2    22  ARG22      -0.2715
     37  CB       -76.8690   17.7070  -16.3090 C.3    22  ARG22       0.0348
     38  CG       -77.6360   18.0060  -15.0260 C.3    22  ARG22       0.0492
     39  CD       -77.5710   19.4970  -14.7010 C.3    22  ARG22       0.2205
     40  NE       -77.8630   20.3290  -15.8680 N.pl3  22  ARG22      -0.0865
     41  CZ       -79.0760   20.5160  -16.3820 C.cat  22  ARG22       0.5346
     42  NH1      -80.1390   19.9380  -15.8320 N.pl3  22  ARG22       0.1354
     43  NH2      -79.2250   21.2720  -17.4620 N.pl3  22  ARG22       0.1354
     44  N        -78.0140   14.7000  -15.2910 N.am   23  SER23      -0.1936
     45  CA       -79.1940   13.9520  -14.8780 C.3    23  SER23       0.2040
     46  C        -79.9390   14.7310  -13.7910 C.2    23  SER23       0.2485
     47  O        -79.3740   15.0360  -12.7390 O.2    23  SER23      -0.2729
     48  CB       -78.7810   12.5780  -14.3440 C.3    23  SER23       0.2129
     49  OG       -79.7920   12.0240  -13.5230 O.3    23  SER23      -0.2179
     50  N        -81.2160   15.0720  -14.0370 N.am   24  PRO24      -0.2726
     51  CA       -82.0270   15.8190  -13.0670 C.3    24  PRO24       0.1402
     52  C        -82.0940   15.1520  -11.6920 C.2    24  PRO24       0.2269
     53  O        -82.3290   15.8140  -10.6810 O.2    24  PRO24      -0.2865
     54  CB       -83.3950   15.8840  -13.7400 C.3    24  PRO24       0.0296
     55  CG       -83.0460   15.9290  -15.1980 C.3    24  PRO24       0.0237
     56  CD       -81.9560   14.8790  -15.3000 C.3    24  PRO24       0.0939
     57  N        -79.5620   12.5890  -10.5690 N.3    26  ARG26      -0.1245
     58  CA       -78.2520   12.2280  -10.0280 C.3    26  ARG26       0.1563
     59  C        -77.1840   13.3090  -10.1690 C.2    26  ARG26       0.2260
     60  O        -76.1280   13.2220   -9.5390 O.2    26  ARG26      -0.2867
     61  CB       -77.7290   10.9470  -10.6870 C.3    26  ARG26       0.0307
     62  CG       -78.5780    9.7070  -10.4680 C.3    26  ARG26       0.0489
     63  CD       -77.7610    8.4530  -10.7550 C.3    26  ARG26       0.2205
     64  NE       -78.5790    7.2420  -10.7770 N.pl3  26  ARG26      -0.0865
     65  CZ       -79.4080    6.9160  -11.7660 C.cat  26  ARG26       0.5346
     66  NH1      -79.5310    7.7120  -12.8240 N.pl3  26  ARG26       0.1354
     67  NH2      -80.1150    5.7920  -11.7000 N.pl3  26  ARG26       0.1354
     68  N        -74.8190   16.0200  -12.8600 N.3    28  SER28      -0.1202
     69  CA       -74.0850   15.8760  -14.1130 C.3    28  SER28       0.2020
     70  C        -73.1400   14.6680  -14.0760 C.2    28  SER28       0.2618
     71  O        -72.6520   14.2810  -13.0170 O.2    28  SER28      -0.2717
     72  CB       -73.3130   17.1650  -14.4280 C.3    28  SER28       0.2103
     73  OG       -72.3900   17.4890  -13.4090 O.3    28  SER28      -0.2182
     74  N        -72.8990   14.0680  -15.2370 N.am   29  TRP29      -0.1975
     75  CA       -72.0340   12.8940  -15.3280 C.3    29  TRP29       0.1640
     76  C        -70.6300   13.1710  -14.8160 C.2    29  TRP29       0.2290
     77  O        -70.0880   12.4150  -14.0030 O.2    29  TRP29      -0.2864
     78  CB       -71.9460   12.4130  -16.7780 C.3    29  TRP29       0.0576
     79  CG       -73.2620   12.0140  -17.3910 C.ar   29  TRP29       0.0006
     80  CD1      -74.4790   11.9290  -16.7640 C.ar   29  TRP29       0.0946
     81  CD2      -73.4830   11.6160  -18.7490 C.ar   29  TRP29       0.0152
     82  NE1      -75.4380   11.5050  -17.6490 N.ar   29  TRP29      -0.2442
     83  CE2      -74.8570   11.3080  -18.8750 C.ar   29  TRP29       0.0810
     84  CE3      -72.6550   11.4970  -19.8750 C.ar   29  TRP29       0.0012
     85  CZ2      -75.4200   10.8780  -20.0830 C.ar   29  TRP29       0.0191
     86  CZ3      -73.2140   11.0690  -21.0770 C.ar   29  TRP29       0.0001
     87  CH2      -74.5850   10.7700  -21.1710 C.ar   29  TRP29       0.0015
     88  N        -71.3950    6.1170  -18.8330 N.3    62  PHE62      -0.1227
     89  CA       -72.6070    6.8610  -19.1770 C.3    62  PHE62       0.1736
     90  C        -73.0470    6.8730  -20.6330 C.2    62  PHE62       0.2595
     91  O        -72.2280    6.9000  -21.5500 O.2    62  PHE62      -0.2718
     92  CB       -72.4960    8.3200  -18.7200 C.3    62  PHE62       0.0547
     93  CG       -72.2150    8.4870  -17.2580 C.ar   62  PHE62      -0.0202
     94  CD1      -70.9260    8.3210  -16.7590 C.ar   62  PHE62      -0.0042
     95  CD2      -73.2330    8.8380  -16.3820 C.ar   62  PHE62      -0.0042
     96  CE1      -70.6550    8.5080  -15.4100 C.ar   62  PHE62      -0.0003
     97  CE2      -72.9740    9.0260  -15.0340 C.ar   62  PHE62      -0.0003
     98  CZ       -71.6790    8.8610  -14.5440 C.ar   62  PHE62      -0.0000
     99  N        -74.3640    6.8740  -20.8190 N.am   63  GLU63      -0.1965
    100  CA       -74.9910    6.9230  -22.1360 C.3    63  GLU63       0.1733
    101  C        -76.3330    7.6100  -21.9110 C.2    63  GLU63       0.2617
    102  O        -77.0670    7.2500  -20.9920 O.2    63  GLU63      -0.2715
    103  CB       -75.2030    5.5160  -22.6990 C.3    63  GLU63       0.0429
    104  CG       -75.3900    5.5010  -24.2120 C.3    63  GLU63       0.1163
    105  CD       -75.5480    4.1020  -24.7830 C.2    63  GLU63       0.3649
    106  OE1      -74.7120    3.2250  -24.4710 O.co2  63  GLU63      -0.2457
    107  OE2      -76.5050    3.8840  -25.5560 O.co2  63  GLU63      -0.2457
    108  N        -76.6530    8.6010  -22.7370 N.am   64  SER64      -0.1936
    109  CA       -77.9020    9.3340  -22.5620 C.3    64  SER64       0.2055
    110  C        -79.1650    8.5490  -22.8970 C.2    64  SER64       0.2643
    111  O        -79.1510    7.6140  -23.7020 O.2    64  SER64      -0.2714
    112  CB       -77.8880   10.6340  -23.3790 C.3    64  SER64       0.2130
    113  OG       -78.1440   10.3920  -24.7490 O.3    64  SER64      -0.2179
    114  N        -80.2540    8.9490  -22.2490 N.am   65  GLN65      -0.1963
    115  CA       -81.5680    8.3510  -22.4440 C.3    65  GLN65       0.1733
    116  C        -82.5780    9.4790  -22.6180 C.2    65  GLN65       0.2617
    117  O        -82.6670   10.3790  -21.7780 O.2    65  GLN65      -0.2715
    118  CB       -81.9550    7.4900  -21.2390 C.3    65  GLN65       0.0408
    119  CG       -81.2380    6.1510  -21.1720 C.3    65  GLN65       0.0908
    120  CD       -80.7780    5.8130  -19.7670 C.2    65  GLN65       0.2608
    121  OE1      -81.5510    5.8980  -18.8090 O.2    65  GLN65      -0.2717
    122  NE2      -79.5120    5.4250  -19.6350 N.am   65  GLN65      -0.0878
    123  N        -83.3220    9.4210  -23.7210 N.am   66  SER66      -0.1950
    124  CA       -84.3400   10.4160  -24.0590 C.3    66  SER66       0.1924
    125  C        -85.3630    9.8330  -25.0360 C.2    66  SER66       0.2314
    126  O        -85.0140    9.0160  -25.8930 O.2    66  SER66      -0.2863
    127  CB       -83.6880   11.6420  -24.7010 C.3    66  SER66       0.2116
    128  OG       -84.6640   12.5900  -25.1020 O.3    66  SER66      -0.2180
    129  N        -81.5520   12.6380  -29.3200 N.3    71  PHE71      -0.1241
    130  CA       -80.6520   12.7770  -28.1750 C.3    71  PHE71       0.1605
    131  C        -80.5680   11.4570  -27.4170 C.2    71  PHE71       0.2264
    132  O        -80.2520   11.4350  -26.2260 O.2    71  PHE71      -0.2867
    133  CB       -81.1470   13.8560  -27.2030 C.3    71  PHE71       0.0534
    134  CG       -81.4130   15.1840  -27.8430 C.ar   71  PHE71      -0.0203
    135  CD1      -82.6710   15.4830  -28.3550 C.ar   71  PHE71      -0.0042
    136  CD2      -80.4070   16.1400  -27.9320 C.ar   71  PHE71      -0.0042
    137  CE1      -82.9240   16.7180  -28.9480 C.ar   71  PHE71      -0.0003
    138  CE2      -80.6480   17.3760  -28.5240 C.ar   71  PHE71      -0.0003
    139  CZ       -81.9100   17.6670  -29.0320 C.ar   71  PHE71      -0.0000
@<TRIPOS>BOND
     1   129   130    1
     2   139   137   ar
     3   139   138   ar
     4   137   135   ar
     5   138   136   ar
     6    12    11    1
     7   135   134   ar
     8    10    11   ar
     9    10     8   ar
    10   130   131    1
    11   130   133    1
    12   136   134   ar
    13   134   133    1
    14    11     9   ar
    15     8     6   ar
    16   131   132    2
    17     9     7   ar
    18     1     2    1
    19     6     7   ar
    20     6     5    1
    21   126   125    2
    22   107   105   ar
    23     5     2    1
    24     2     3    1
    25   128   127    1
    26    30    32   ar
    27    30    28   ar
    28   125   124    1
    29   105   106   ar
    30   105   104    1
    31   113   112    1
    32   127   124    1
    33    32    31   ar
    34   104   103    1
    35    27    28   ar
    36    27    25   ar
    37     4     3    2
    38   124   123    1
    39    28    26   ar
    40     3    13   am
    41   123   116   am
    42   111   110    2
    43   112   109    1
    44    31    29   ar
    45   110   109    1
    46   110   114   am
    47    25    24   ar
    48    13    14    1
    49   108   109    1
    50   108   101   am
    51   103   100    1
    52    26    29   ar
    53    26    24   ar
    54   116   115    1
    55   116   117    2
    56   115   114    1
    57   115   118    1
    58   100   101    1
    59   100    99    1
    60    24    23    1
    61   101   102    2
    62    14    15    1
    63    14    17    1
    64    91    90    2
    65   118   119    1
    66   119   120    1
    67    87    86   ar
    68    87    85   ar
    69    86    84   ar
    70    15    16    2
    71    15    19   am
    72    99    90   am
    73    17    18    1
    74    90    89    1
    75    19    20    1
    76    23    20    1
    77    85    83   ar
    78    20    21    1
    79    84    81   ar
    80   120   122   am
    81   120   121    2
    82    89    88    1
    83    89    92    1
    84    83    81   ar
    85    83    82   ar
    86    81    79   ar
    87    92    93    1
    88    21    33   am
    89    21    22    2
    90    33    34    1
    91    82    80   ar
    92    43    41    1
    93    79    78    1
    94    79    80   ar
    95    93    94   ar
    96    93    95   ar
    97    36    35    2
    98    78    75    1
    99    94    96   ar
   100    34    35    1
   101    34    37    1
   102    41    40    2
   103    41    42    1
   104    95    97   ar
   105    35    44   am
   106    37    38    1
   107    40    39    1
   108    96    98   ar
   109    75    74    1
   110    75    76    1
   111    56    55    1
   112    56    50    1
   113    44    45    1
   114    74    70   am
   115    55    54    1
   116    97    98   ar
   117    38    39    1
   118    45    48    1
   119    45    46    1
   120    76    77    2
   121    72    69    1
   122    72    73    1
   123    48    49    1
   124    69    70    1
   125    69    68    1
   126    70    71    2
   127    50    46   am
   128    50    51    1
   129    46    47    2
   130    54    51    1
   131    51    52    1
   132    66    65    1
   133    65    67    1
   134    65    64    2
   135    52    53    2
   136    64    63    1
   137    63    62    1
   138    61    62    1
   139    61    58    1
   140    57    58    1
   141    59    58    1
   142    59    60    2
