@<TRIPOS>MOLECULE
tmp/2qlfA00.pdb
 82 78 0 0 0
SMALL
GASTEIGER

@<TRIPOS>ATOM
      1  N        -52.3290   21.9260   44.2130 N.3    27  MET27      -0.1245
      2  CA       -51.4380   21.4990   43.1320 C.3    27  MET27       0.1570
      3  C        -50.5360   20.3390   43.5690 C.2    27  MET27       0.2261
      4  O        -50.1320   20.2580   44.7340 O.2    27  MET27      -0.2867
      5  CB       -50.5790   22.6760   42.6740 C.3    27  MET27       0.0387
      6  CG       -51.3660   23.9520   42.4070 C.3    27  MET27       0.0595
      7  SD       -52.7210   23.7100   41.2450 S.3    27  MET27      -0.1393
      8  CE       -51.8730   23.8590   39.6590 C.3    27  MET27       0.0692
      9  N        -47.1160   17.4770   42.9910 N.3    29  VAL29      -0.1231
     10  CA       -45.6740   17.5140   42.7730 C.3    29  VAL29       0.1692
     11  C        -45.2940   17.4740   41.3000 C.2    29  VAL29       0.2592
     12  O        -45.6550   16.5450   40.5700 O.2    29  VAL29      -0.2718
     13  CB       -44.9680   16.3550   43.5250 C.3    29  VAL29       0.0266
     14  CG1      -43.5270   16.2100   43.0590 C.3    29  VAL29       0.0020
     15  CG2      -44.9870   16.6390   45.0220 C.3    29  VAL29       0.0020
     16  N        -44.5530   18.4970   40.8810 N.am   30  ARG30      -0.1966
     17  CA       -44.0990   18.6320   39.5000 C.3    30  ARG30       0.1729
     18  C        -42.8300   17.8160   39.2750 C.2    30  ARG30       0.2616
     19  O        -41.7240   18.3550   39.2670 O.2    30  ARG30      -0.2715
     20  CB       -43.8480   20.1140   39.1790 C.3    30  ARG30       0.0348
     21  CG       -45.0830   20.9880   39.3590 C.3    30  ARG30       0.0492
     22  CD       -44.8070   22.4640   39.1280 C.3    30  ARG30       0.2205
     23  NE       -44.2940   22.7220   37.7870 N.pl3  30  ARG30      -0.0865
     24  CZ       -43.0040   22.8260   37.4910 C.cat  30  ARG30       0.5346
     25  NH1      -42.0940   22.7050   38.4410 N.pl3  30  ARG30       0.1354
     26  NH2      -42.6190   23.0260   36.2420 N.pl3  30  ARG30       0.1354
     27  N        -42.9980   16.5110   39.0930 N.am   31  ASN31      -0.1972
     28  CA       -41.8680   15.6160   38.8730 C.3    31  ASN31       0.1688
     29  C        -41.1410   15.9740   37.5920 C.2    31  ASN31       0.2292
     30  O        -41.7460   16.4770   36.6420 O.2    31  ASN31      -0.2864
     31  CB       -42.3480   14.1690   38.7840 C.3    31  ASN31       0.1181
     32  CG       -43.0940   13.7320   40.0190 C.2    31  ASN31       0.2629
     33  OD1      -42.5310   13.6900   41.1150 O.2    31  ASN31      -0.2716
     34  ND2      -44.3760   13.4110   39.8530 N.am   31  ASN31      -0.0877
     35  N        -42.9210   26.1920   37.4050 N.3    86  SER86      -0.1202
     36  CA       -43.9370   25.9880   38.4280 C.3    86  SER86       0.2020
     37  C        -45.3120   25.7410   37.8280 C.2    86  SER86       0.2619
     38  O        -45.4600   25.5630   36.6130 O.2    86  SER86      -0.2717
     39  CB       -43.9950   27.2320   39.3250 C.3    86  SER86       0.2103
     40  OG       -44.9850   27.1140   40.3230 O.3    86  SER86      -0.2182
     41  N        -46.3130   25.7060   38.7030 N.am   87  HIS87      -0.1961
     42  CA       -47.6910   25.5380   38.2810 C.3    87  HIS87       0.1787
     43  C        -48.1290   26.9420   37.9340 C.2    87  HIS87       0.2620
     44  O        -47.6160   27.9110   38.4930 O.2    87  HIS87      -0.2715
     45  CB       -48.5620   25.0040   39.4200 C.3    87  HIS87       0.0785
     46  CG       -48.5440   23.5140   39.5420 C.ar   87  HIS87       0.0821
     47  ND1      -48.9680   22.6830   38.5300 N.ar   87  HIS87      -0.2267
     48  CD2      -48.1380   22.7070   40.5510 C.ar   87  HIS87       0.1154
     49  CE1      -48.8220   21.4250   38.9070 C.ar   87  HIS87       0.1986
     50  NE2      -48.3200   21.4130   40.1290 N.ar   87  HIS87      -0.2212
     51  N        -49.0660   27.0620   37.0080 N.am   88  GLY88      -0.1954
     52  CA       -49.5160   28.3850   36.6500 C.3    88  GLY88       0.1869
     53  C        -50.8430   28.4100   35.9420 C.2    88  GLY88       0.2309
     54  O        -51.3460   27.3820   35.4860 O.2    88  GLY88      -0.2863
     55  N        -42.0250   28.3030   32.1490 N.3   127  GLN127     -0.1231
     56  CA       -42.6010   26.9840   31.9240 C.3   127  GLN127      0.1698
     57  C        -43.6820   26.8050   32.9820 C.2   127  GLN127      0.2592
     58  O        -43.3940   26.6460   34.1760 O.2   127  GLN127     -0.2718
     59  CB       -41.5200   25.9060   32.0600 C.3   127  GLN127      0.0381
     60  CG       -42.0160   24.5130   32.4330 C.3   127  GLN127      0.0905
     61  CD       -43.0590   23.9560   31.4850 C.2   127  GLN127      0.2608
     62  OE1      -42.8570   23.9110   30.2700 O.2   127  GLN127     -0.2717
     63  NE2      -44.1820   23.5120   32.0430 N.am  127  GLN127     -0.0878
     64  N        -44.9310   26.8650   32.5370 N.am  128  ALA128     -0.1966
     65  CA       -46.0750   26.7270   33.4290 C.3   128  ALA128      0.1728
     66  C        -47.3410   26.8330   32.5950 C.2   128  ALA128      0.2616
     67  O        -47.3000   27.3310   31.4770 O.2   128  ALA128     -0.2715
     68  CB       -46.0490   27.8230   34.4780 C.3   128  ALA128      0.0334
     69  N        -48.4590   26.3620   33.1350 N.am  129  CYS129     -0.1968
     70  CA       -49.7250   26.4170   32.4220 C.3   129  CYS129      0.1712
     71  C        -50.1990   27.8550   32.3450 C.2   129  CYS129      0.2296
     72  O        -49.6970   28.7290   33.0640 O.2   129  CYS129     -0.2864
     73  CB       -50.7770   25.5670   33.1290 C.3   129  CYS129      0.0983
     74  SG       -50.4030   23.7890   33.1320 S.3   129  CYS129     -0.0798
     75  N        -56.5740   22.3790   25.7500 N.3   134  LEU134     -0.1245
     76  CA       -55.6940   21.3790   25.1540 C.3   134  LEU134      0.1561
     77  C        -55.6460   21.5640   23.6450 C.2   134  LEU134      0.2260
     78  O        -56.6240   21.9920   23.0440 O.2   134  LEU134     -0.2867
     79  CB       -56.1970   19.9660   25.4690 C.3   134  LEU134      0.0270
     80  CG       -56.1530   19.4720   26.9180 C.3   134  LEU134      0.0019
     81  CD1      -56.9860   18.2080   27.0520 C.3   134  LEU134      0.0001
     82  CD2      -54.7170   19.2160   27.3300 C.3   134  LEU134      0.0001
@<TRIPOS>BOND
     1    78    77    2
     2    77    76    1
     3    76    79    1
     4    76    75    1
     5    79    80    1
     6    80    81    1
     7    80    82    1
     8    62    61    2
     9    67    66    2
    10    61    63   am
    11    61    60    1
    12    56    59    1
    13    56    55    1
    14    56    57    1
    15    59    60    1
    16    71    70    1
    17    71    72    2
    18    70    73    1
    19    70    69    1
    20    64    57   am
    21    64    65    1
    22    66    69   am
    23    66    65    1
    24    57    58    2
    25    73    74    1
    26    65    68    1
    27    54    53    2
    28    53    52    1
    29    26    24    1
    30    38    37    2
    31    30    29    2
    32    52    51    1
    33    51    43   am
    34    35    36    1
    35    24    23    2
    36    24    25    1
    37    29    28    1
    38    23    22    1
    39    37    36    1
    40    37    41   am
    41    43    42    1
    42    43    44    2
    43    42    41    1
    44    42    45    1
    45    36    39    1
    46    47    49   ar
    47    47    46   ar
    48    31    28    1
    49    31    32    1
    50    28    27    1
    51    49    50   ar
    52    27    18   am
    53    22    21    1
    54    20    21    1
    55    20    17    1
    56    19    18    2
    57    18    17    1
    58    39    40    1
    59    45    46    1
    60    17    16    1
    61    46    48   ar
    62     8     7    1
    63    34    32   am
    64    32    33    2
    65    50    48   ar
    66    12    11    2
    67    16    11   am
    68     7     6    1
    69    11    10    1
    70     6     5    1
    71     5     2    1
    72    10     9    1
    73    10    13    1
    74    14    13    1
    75     2     3    1
    76     2     1    1
    77    13    15    1
    78     3     4    2
