@<TRIPOS>MOLECULE
tmp/2qlfB00.pdb
 117 120 0 0 0
SMALL
GASTEIGER

@<TRIPOS>ATOM
      1  N        -52.7950   24.4730   28.2780 N.3    19  TYR19      -0.1227
      2  CA       -52.0300   23.7040   29.2390 C.3    19  TYR19       0.1736
      3  C        -50.5980   23.6460   28.7390 C.2    19  TYR19       0.2596
      4  O        -50.3150   23.9850   27.5810 O.2    19  TYR19      -0.2718
      5  CB       -52.5770   22.2790   29.3540 C.3    19  TYR19       0.0548
      6  CG       -53.6510   22.0840   30.4060 C.ar   19  TYR19      -0.0200
      7  CD1      -53.4200   22.4330   31.7370 C.ar   19  TYR19      -0.0009
      8  CD2      -54.8730   21.4850   30.0860 C.ar   19  TYR19      -0.0009
      9  CE1      -54.3690   22.1840   32.7220 C.ar   19  TYR19       0.0417
     10  CE2      -55.8280   21.2340   31.0670 C.ar   19  TYR19       0.0417
     11  CZ       -55.5670   21.5850   32.3800 C.ar   19  TYR19       0.1957
     12  OH       -56.4980   21.3380   33.3560 O.3    19  TYR19      -0.2866
     13  N        -49.7030   23.2170   29.6230 N.am   20  SER20      -0.1938
     14  CA       -48.2880   23.0840   29.3010 C.3    20  SER20       0.2055
     15  C        -47.8890   21.7110   29.8050 C.2    20  SER20       0.2643
     16  O        -48.0350   21.4110   30.9880 O.2    20  SER20      -0.2714
     17  CB       -47.4720   24.1720   30.0100 C.3    20  SER20       0.2130
     18  OG       -46.1520   24.2420   29.5030 O.3    20  SER20      -0.2179
     19  N        -47.3990   20.8740   28.9020 N.am   21  TRP21      -0.1959
     20  CA       -47.0050   19.5210   29.2630 C.3    21  TRP21       0.1771
     21  C        -45.6180   19.3720   29.8860 C.2    21  TRP21       0.2620
     22  O        -44.7130   20.1780   29.6590 O.2    21  TRP21      -0.2715
     23  CB       -47.1440   18.6020   28.0470 C.3    21  TRP21       0.0590
     24  CG       -48.5740   18.4670   27.6110 C.ar   21  TRP21       0.0006
     25  CD1      -49.2790   19.3320   26.8250 C.ar   21  TRP21       0.0946
     26  CD2      -49.4900   17.4370   27.9930 C.ar   21  TRP21       0.0152
     27  NE1      -50.5760   18.9050   26.6920 N.ar   21  TRP21      -0.2442
     28  CE2      -50.7350   17.7430   27.3990 C.ar   21  TRP21       0.0810
     29  CE3      -49.3800   16.2800   28.7790 C.ar   21  TRP21       0.0012
     30  CZ2      -51.8650   16.9370   27.5670 C.ar   21  TRP21       0.0191
     31  CZ3      -50.5010   15.4800   28.9460 C.ar   21  TRP21       0.0001
     32  CH2      -51.7290   15.8130   28.3400 C.ar   21  TRP21       0.0015
     33  N        -45.4740   18.3220   30.6860 N.am   22  ARG22      -0.1963
     34  CA       -44.2330   18.0380   31.3830 C.3    22  ARG22       0.1729
     35  C        -44.1150   16.5490   31.6770 C.2    22  ARG22       0.2617
     36  O        -44.9220   15.9920   32.4180 O.2    22  ARG22      -0.2715
     37  CB       -44.1910   18.8350   32.6930 C.3    22  ARG22       0.0348
     38  CG       -43.1770   18.3460   33.7170 C.3    22  ARG22       0.0492
     39  CD       -43.1740   19.2410   34.9460 C.3    22  ARG22       0.2205
     40  NE       -44.5300   19.5390   35.4040 N.pl3  22  ARG22      -0.0865
     41  CZ       -45.3620   18.6520   35.9490 C.cat  22  ARG22       0.5346
     42  NH1      -44.9810   17.3930   36.1150 N.pl3  22  ARG22       0.1354
     43  NH2      -46.5790   19.0240   36.3270 N.pl3  22  ARG22       0.1354
     44  N        -43.1160   15.9090   31.0830 N.am   23  SER23      -0.1936
     45  CA       -42.8720   14.4870   31.3040 C.3    23  SER23       0.2040
     46  C        -42.1940   14.2900   32.6660 C.2    23  SER23       0.2485
     47  O        -41.1010   14.8050   32.9040 O.2    23  SER23      -0.2729
     48  CB       -41.9700   13.9380   30.2080 C.3    23  SER23       0.2129
     49  OG       -41.0590   13.0040   30.7560 O.3    23  SER23      -0.2179
     50  N        -42.8300   13.5290   33.5720 N.am   24  PRO24      -0.2726
     51  CA       -42.2660   13.2880   34.9060 C.3    24  PRO24       0.1402
     52  C        -40.8590   12.6820   34.9130 C.2    24  PRO24       0.2269
     53  O        -40.1570   12.7540   35.9210 O.2    24  PRO24      -0.2865
     54  CB       -43.2930   12.3580   35.5570 C.3    24  PRO24       0.0296
     55  CG       -44.5710   12.7180   34.8720 C.3    24  PRO24       0.0237
     56  CD       -44.1350   12.8590   33.4310 C.3    24  PRO24       0.0939
     57  N        -40.2950   18.8840   31.5020 N.3    28  SER28      -0.1202
     58  CA       -41.2240   19.5310   30.5750 C.3    28  SER28       0.2020
     59  C        -40.6940   19.5980   29.1400 C.2    28  SER28       0.2618
     60  O        -39.4890   19.6210   28.9160 O.2    28  SER28      -0.2717
     61  CB       -41.5560   20.9380   31.0690 C.3    28  SER28       0.2103
     62  OG       -40.3840   21.7150   31.2150 O.3    28  SER28      -0.2182
     63  N        -41.6060   19.6290   28.1710 N.am   29  TRP29      -0.1975
     64  CA       -41.2400   19.6810   26.7550 C.3    29  TRP29       0.1640
     65  C        -40.4710   20.9480   26.3970 C.2    29  TRP29       0.2290
     66  O        -39.4370   20.9010   25.7280 O.2    29  TRP29      -0.2864
     67  CB       -42.4930   19.6180   25.8740 C.3    29  TRP29       0.0576
     68  CG       -43.3590   18.4130   26.0760 C.ar   29  TRP29       0.0006
     69  CD1      -43.0880   17.3230   26.8520 C.ar   29  TRP29       0.0946
     70  CD2      -44.6330   18.1630   25.4640 C.ar   29  TRP29       0.0152
     71  NE1      -44.1130   16.4070   26.7600 N.ar   29  TRP29      -0.2442
     72  CE2      -45.0740   16.8990   25.9140 C.ar   29  TRP29       0.0810
     73  CE3      -45.4440   18.8840   24.5770 C.ar   29  TRP29       0.0012
     74  CZ2      -46.2890   16.3420   25.5090 C.ar   29  TRP29       0.0191
     75  CZ3      -46.6560   18.3260   24.1740 C.ar   29  TRP29       0.0001
     76  CH2      -47.0630   17.0690   24.6410 C.ar   29  TRP29       0.0015
     77  N        -45.5180   14.7370   21.8850 N.3    63  GLU63      -0.1231
     78  CA       -46.9320   14.3800   21.8490 C.3    63  GLU63       0.1699
     79  C        -47.2830   13.7060   23.1670 C.2    63  GLU63       0.2593
     80  O        -46.6560   12.7240   23.5590 O.2    63  GLU63      -0.2718
     81  CB       -47.2540   13.4480   20.6790 C.3    63  GLU63       0.0402
     82  CG       -48.7630   13.3210   20.4530 C.3    63  GLU63       0.1161
     83  CD       -49.1340   12.6060   19.1640 C.2    63  GLU63       0.3649
     84  OE1      -48.6360   13.0080   18.0820 O.co2  63  GLU63      -0.2457
     85  OE2      -49.9410   11.6480   19.2370 O.co2  63  GLU63      -0.2457
     86  N        -48.2880   14.2330   23.8540 N.am   64  SER64      -0.1938
     87  CA       -48.6760   13.6900   25.1490 C.3    64  SER64       0.2055
     88  C        -49.0810   12.2180   25.1530 C.2    64  SER64       0.2643
     89  O        -49.4620   11.6440   24.1280 O.2    64  SER64      -0.2714
     90  CB       -49.8030   14.5330   25.7620 C.3    64  SER64       0.2130
     91  OG       -50.9940   14.4540   25.0010 O.3    64  SER64      -0.2179
     92  N        -48.9790   11.6210   26.3350 N.am   65  GLN65      -0.1963
     93  CA       -49.3380   10.2280   26.5600 C.3    65  GLN65       0.1733
     94  C        -50.0710   10.1800   27.8940 C.2    65  GLN65       0.2617
     95  O        -49.6920   10.8560   28.8500 O.2    65  GLN65      -0.2715
     96  CB       -48.0860    9.3560   26.6240 C.3    65  GLN65       0.0408
     97  CG       -47.2480    9.3770   25.3590 C.3    65  GLN65       0.0908
     98  CD       -45.8880    8.7370   25.5650 C.2    65  GLN65       0.2608
     99  OE1      -45.7880    7.5750   25.9640 O.2    65  GLN65      -0.2717
    100  NE2      -44.8300    9.4960   25.2980 N.am   65  GLN65      -0.0878
    101  N        -51.1260    9.3830   27.9550 N.am   66  SER66      -0.1950
    102  CA       -51.9120    9.2650   29.1700 C.3    66  SER66       0.1924
    103  C        -52.9650    8.2010   28.9270 C.2    66  SER66       0.2314
    104  O        -53.5270    8.1220   27.8330 O.2    66  SER66      -0.2863
    105  CB       -52.5820   10.6060   29.4820 C.3    66  SER66       0.2116
    106  OG       -53.2750   10.5740   30.7140 O.3    66  SER66      -0.2180
    107  N        -56.7680   13.1050   27.3780 N.3    71  PHE71      -0.1241
    108  CA       -55.4570   13.7490   27.4210 C.3    71  PHE71       0.1605
    109  C        -54.4370   13.0200   26.5570 C.2    71  PHE71       0.2264
    110  O        -53.2390   13.2750   26.6440 O.2    71  PHE71      -0.2867
    111  CB       -54.9370   13.8140   28.8580 C.3    71  PHE71       0.0534
    112  CG       -55.7930   14.6320   29.7740 C.ar   71  PHE71      -0.0203
    113  CD1      -56.9810   14.1230   30.2740 C.ar   71  PHE71      -0.0042
    114  CD2      -55.4160   15.9240   30.1270 C.ar   71  PHE71      -0.0042
    115  CE1      -57.7840   14.8910   31.1180 C.ar   71  PHE71      -0.0003
    116  CE2      -56.2140   16.7010   30.9710 C.ar   71  PHE71      -0.0003
    117  CZ       -57.3990   16.1840   31.4660 C.ar   71  PHE71      -0.0000
@<TRIPOS>BOND
     1    84    83   ar
     2    83    85   ar
     3    83    82    1
     4    82    81    1
     5    81    78    1
     6    78    77    1
     7    78    79    1
     8    79    80    2
     9    79    86   am
    10    86    87    1
    11    89    88    2
    12    75    73   ar
    13    75    76   ar
    14    73    70   ar
    15    76    74   ar
    16    91    90    1
    17    87    88    1
    18    87    90    1
    19    88    92   am
    20   100    98   am
    21    97    98    1
    22    97    96    1
    23    70    72   ar
    24    70    68   ar
    25    74    72   ar
    26    98    99    2
    27    66    65    2
    28    67    68    1
    29    67    64    1
    30    72    71   ar
    31    68    69   ar
    32    92    93    1
    33    65    64    1
    34   109   110    2
    35   109   108    1
    36    93    96    1
    37    93    94    1
    38    27    25   ar
    39    27    28   ar
    40    64    63    1
    41    71    69   ar
    42    25    24   ar
    43   107   108    1
    44    28    30   ar
    45    28    26   ar
    46   108   111    1
    47    30    32   ar
    48     4     3    2
    49    24    26   ar
    50    24    23    1
    51   104   103    2
    52    94   101   am
    53    94    95    2
    54   101   102    1
    55    26    29   ar
    56    23    20    1
    57    63    59   am
    58     1     2    1
    59    32    31   ar
    60     3     2    1
    61     3    13   am
    62    29    31   ar
    63   111   112    1
    64    19    20    1
    65    19    15   am
    66    60    59    2
    67   103   102    1
    68    59    58    1
    69   102   105    1
    70     2     5    1
    71    20    21    1
    72    14    13    1
    73    14    15    1
    74    14    17    1
    75     5     6    1
    76   105   106    1
    77    18    17    1
    78    22    21    2
    79   112   114   ar
    80   112   113   ar
    81    15    16    2
    82    21    33   am
    83     8     6   ar
    84     8    10   ar
    85   114   116   ar
    86    48    49    1
    87    48    45    1
    88   113   115   ar
    89     6     7   ar
    90    58    61    1
    91    58    57    1
    92    33    34    1
    93   116   117   ar
    94    10    11   ar
    95    61    62    1
    96    44    45    1
    97    44    35   am
    98   115   117   ar
    99    45    46    1
   100    34    35    1
   101    34    37    1
   102    35    36    2
   103     7     9   ar
   104    11     9   ar
   105    11    12    1
   106    46    47    2
   107    46    50   am
   108    37    38    1
   109    56    50    1
   110    56    55    1
   111    50    51    1
   112    38    39    1
   113    55    54    1
   114    51    52    1
   115    51    54    1
   116    52    53    2
   117    39    40    1
   118    40    41    2
   119    41    42    1
   120    41    43    1
