@<TRIPOS>MOLECULE
tmp/2qljB00.pdb
 139 142 0 0 0
SMALL
GASTEIGER

@<TRIPOS>ATOM
      1  N        -47.4510   33.8280  -28.7890 N.3    19  TYR19      -0.1227
      2  CA       -46.3480   33.4670  -29.6690 C.3    19  TYR19       0.1736
      3  C        -45.6080   32.2210  -29.2020 C.2    19  TYR19       0.2596
      4  O        -45.6890   31.8280  -28.0340 O.2    19  TYR19      -0.2718
      5  CB       -45.3180   34.5970  -29.7390 C.3    19  TYR19       0.0548
      6  CG       -45.6390   35.7410  -30.6660 C.ar   19  TYR19      -0.0200
      7  CD1      -46.6620   35.6460  -31.6080 C.ar   19  TYR19      -0.0009
      8  CD2      -44.8800   36.9120  -30.6320 C.ar   19  TYR19      -0.0009
      9  CE1      -46.9200   36.6910  -32.4960 C.ar   19  TYR19       0.0417
     10  CE2      -45.1280   37.9610  -31.5140 C.ar   19  TYR19       0.0417
     11  CZ       -46.1480   37.8460  -32.4420 C.ar   19  TYR19       0.1957
     12  OH       -46.3900   38.8810  -33.3190 O.3    19  TYR19      -0.2866
     13  N        -44.8790   31.6170  -30.1350 N.am   20  SER20      -0.1938
     14  CA       -44.0550   30.4500  -29.8650 C.3    20  SER20       0.2055
     15  C        -42.6940   30.8680  -30.3610 C.2    20  SER20       0.2643
     16  O        -42.5200   31.1380  -31.5460 O.2    20  SER20      -0.2714
     17  CB       -44.5290   29.2280  -30.6510 C.3    20  SER20       0.2130
     18  OG       -45.5580   28.5410  -29.9670 O.3    20  SER20      -0.2179
     19  N        -41.7320   30.9290  -29.4530 N.am   21  TRP21      -0.1959
     20  CA       -40.3850   31.3490  -29.8010 C.3    21  TRP21       0.1771
     21  C        -39.4900   30.2660  -30.3820 C.2    21  TRP21       0.2620
     22  O        -39.4200   29.1510  -29.8720 O.2    21  TRP21      -0.2715
     23  CB       -39.7310   31.9970  -28.5810 C.3    21  TRP21       0.0590
     24  CG       -40.5320   33.1640  -28.1120 C.ar   21  TRP21       0.0006
     25  CD1      -41.4390   33.1820  -27.0930 C.ar   21  TRP21       0.0946
     26  CD2      -40.6000   34.4530  -28.7320 C.ar   21  TRP21       0.0152
     27  NE1      -42.0740   34.3980  -27.0450 N.ar   21  TRP21      -0.2442
     28  CE2      -41.5790   35.1980  -28.0400 C.ar   21  TRP21       0.0810
     29  CE3      -39.9300   35.0490  -29.8090 C.ar   21  TRP21       0.0012
     30  CZ2      -41.9080   36.5120  -28.3890 C.ar   21  TRP21       0.0191
     31  CZ3      -40.2570   36.3550  -30.1580 C.ar   21  TRP21       0.0001
     32  CH2      -41.2410   37.0720  -29.4480 C.ar   21  TRP21       0.0015
     33  N        -38.8030   30.6300  -31.4600 N.am   22  ARG22      -0.1963
     34  CA       -37.9060   29.7380  -32.1810 C.3    22  ARG22       0.1729
     35  C        -36.5520   30.4010  -32.4310 C.2    22  ARG22       0.2617
     36  O        -36.4830   31.5290  -32.9180 O.2    22  ARG22      -0.2715
     37  CB       -38.5560   29.3500  -33.5170 C.3    22  ARG22       0.0348
     38  CG       -37.6620   28.5920  -34.4890 C.3    22  ARG22       0.0492
     39  CD       -38.4730   28.0840  -35.6800 C.3    22  ARG22       0.2205
     40  NE       -39.3250   29.1260  -36.2560 N.pl3  22  ARG22      -0.0865
     41  CZ       -38.8770   30.2100  -36.8890 C.cat  22  ARG22       0.5346
     42  NH1      -37.5730   30.4060  -37.0400 N.pl3  22  ARG22       0.1354
     43  NH2      -39.7350   31.1060  -37.3640 N.pl3  22  ARG22       0.1354
     44  N        -35.4810   29.6910  -32.0910 N.am   23  SER23      -0.1936
     45  CA       -34.1170   30.1830  -32.2840 C.3    23  SER23       0.2040
     46  C        -33.4890   29.5370  -33.5270 C.2    23  SER23       0.2485
     47  O        -33.2360   28.3320  -33.5480 O.2    23  SER23      -0.2729
     48  CB       -33.2760   29.8600  -31.0460 C.3    23  SER23       0.2129
     49  OG       -31.8950   29.8350  -31.3550 O.3    23  SER23      -0.2179
     50  N        -33.2200   30.3360  -34.5780 N.am   24  PRO24      -0.2726
     51  CA       -32.6230   29.8020  -35.8090 C.3    24  PRO24       0.1402
     52  C        -31.4360   28.8630  -35.6180 C.2    24  PRO24       0.2269
     53  O        -31.2590   27.9200  -36.3890 O.2    24  PRO24      -0.2865
     54  CB       -32.2550   31.0630  -36.5980 C.3    24  PRO24       0.0296
     55  CG       -32.1260   32.1170  -35.5470 C.3    24  PRO24       0.0237
     56  CD       -33.2840   31.8050  -34.6390 C.3    24  PRO24       0.0939
     57  N        -30.6780   27.2490  -32.4910 N.3    26  ARG26      -0.1245
     58  CA       -30.9770   26.1870  -31.5340 C.3    26  ARG26       0.1563
     59  C        -32.3290   25.5190  -31.7200 C.2    26  ARG26       0.2260
     60  O        -32.5850   24.4700  -31.1370 O.2    26  ARG26      -0.2867
     61  CB       -30.8880   26.7130  -30.1000 C.3    26  ARG26       0.0307
     62  CG       -29.4700   26.9320  -29.5800 C.3    26  ARG26       0.0489
     63  CD       -29.4690   26.9670  -28.0560 C.3    26  ARG26       0.2205
     64  NE       -30.2680   28.0770  -27.5370 N.pl3  26  ARG26      -0.0865
     65  CZ       -30.9450   28.0540  -26.3890 C.cat  26  ARG26       0.5346
     66  NH1      -30.9350   26.9680  -25.6190 N.pl3  26  ARG26       0.1354
     67  NH2      -31.6300   29.1280  -26.0060 N.pl3  26  ARG26       0.1354
     68  N        -36.7730   25.7290  -31.8760 N.3    28  SER28      -0.1202
     69  CA       -37.8070   26.2590  -30.9910 C.3    28  SER28       0.2020
     70  C        -37.6460   25.8130  -29.5310 C.2    28  SER28       0.2618
     71  O        -36.9960   24.8100  -29.2460 O.2    28  SER28      -0.2717
     72  CB       -39.1910   25.8640  -31.5140 C.3    28  SER28       0.2103
     73  OG       -39.3390   24.4570  -31.5670 O.3    28  SER28      -0.2182
     74  N        -38.2450   26.5700  -28.6140 N.am   29  TRP29      -0.1975
     75  CA       -38.1790   26.2780  -27.1820 C.3    29  TRP29       0.1640
     76  C        -38.9260   25.0030  -26.8150 C.2    29  TRP29       0.2290
     77  O        -38.4160   24.1470  -26.0890 O.2    29  TRP29      -0.2864
     78  CB       -38.7860   27.4290  -26.3750 C.3    29  TRP29       0.0576
     79  CG       -38.0840   28.7440  -26.5170 C.ar   29  TRP29       0.0006
     80  CD1      -37.0260   29.0280  -27.3240 C.ar   29  TRP29       0.0946
     81  CD2      -38.4120   29.9650  -25.8420 C.ar   29  TRP29       0.0152
     82  NE1      -36.6700   30.3470  -27.1950 N.ar   29  TRP29      -0.2442
     83  CE2      -37.5020   30.9460  -26.2880 C.ar   29  TRP29       0.0810
     84  CE3      -39.3830   30.3230  -24.8950 C.ar   29  TRP29       0.0012
     85  CZ2      -37.5420   32.2660  -25.8350 C.ar   29  TRP29       0.0191
     86  CZ3      -39.4210   31.6360  -24.4430 C.ar   29  TRP29       0.0001
     87  CH2      -38.5020   32.5900  -24.9110 C.ar   29  TRP29       0.0015
     88  N        -36.1820   29.4630  -20.3210 N.3    62  PHE62      -0.1227
     89  CA       -36.1870   30.3910  -21.4550 C.3    62  PHE62       0.1736
     90  C        -36.6640   31.8160  -21.2070 C.2    62  PHE62       0.2595
     91  O        -37.4620   32.0750  -20.3070 O.2    62  PHE62      -0.2718
     92  CB       -37.0020   29.8000  -22.6050 C.3    62  PHE62       0.0547
     93  CG       -36.3270   28.6560  -23.2930 C.ar   62  PHE62      -0.0202
     94  CD1      -35.3230   28.8860  -24.2230 C.ar   62  PHE62      -0.0042
     95  CD2      -36.6830   27.3420  -22.9970 C.ar   62  PHE62      -0.0042
     96  CE1      -34.6720   27.8230  -24.8440 C.ar   62  PHE62      -0.0003
     97  CE2      -36.0390   26.2710  -23.6120 C.ar   62  PHE62      -0.0003
     98  CZ       -35.0340   26.5110  -24.5400 C.ar   62  PHE62      -0.0000
     99  N        -36.1610   32.7270  -22.0400 N.am   63  GLU63      -0.1965
    100  CA       -36.4970   34.1500  -21.9910 C.3    63  GLU63       0.1733
    101  C        -35.9470   34.8430  -23.2410 C.2    63  GLU63       0.2617
    102  O        -34.7340   34.9970  -23.3980 O.2    63  GLU63      -0.2715
    103  CB       -35.9110   34.8020  -20.7380 C.3    63  GLU63       0.0429
    104  CG       -36.3420   36.2490  -20.5520 C.3    63  GLU63       0.1163
    105  CD       -35.9490   36.8020  -19.2000 C.2    63  GLU63       0.3649
    106  OE1      -36.3810   36.2310  -18.1740 O.co2  63  GLU63      -0.2457
    107  OE2      -35.2090   37.8070  -19.1650 O.co2  63  GLU63      -0.2457
    108  N        -36.8520   35.2650  -24.1210 N.am   64  SER64      -0.1936
    109  CA       -36.4860   35.9160  -25.3790 C.3    64  SER64       0.2055
    110  C        -35.6060   37.1590  -25.2530 C.2    64  SER64       0.2643
    111  O        -35.6010   37.8380  -24.2230 O.2    64  SER64      -0.2714
    112  CB       -37.7510   36.2750  -26.1730 C.3    64  SER64       0.2130
    113  OG       -38.5320   37.2420  -25.4940 O.3    64  SER64      -0.2179
    114  N        -34.8670   37.4400  -26.3250 N.am   65  GLN65      -0.1963
    115  CA       -33.9740   38.5940  -26.4020 C.3    65  GLN65       0.1733
    116  C        -34.0570   39.1870  -27.8100 C.2    65  GLN65       0.2617
    117  O        -33.6640   38.5450  -28.7860 O.2    65  GLN65      -0.2715
    118  CB       -32.5300   38.1720  -26.1100 C.3    65  GLN65       0.0408
    119  CG       -31.5280   39.3200  -26.0900 C.3    65  GLN65       0.0908
    120  CD       -31.5880   40.1310  -24.8080 C.2    65  GLN65       0.2608
    121  OE1      -32.6610   40.5480  -24.3720 O.2    65  GLN65      -0.2717
    122  NE2      -30.4280   40.3640  -24.2010 N.am   65  GLN65      -0.0878
    123  N        -34.5740   40.4100  -27.9080 N.am   66  SER66      -0.1950
    124  CA       -34.7180   41.0900  -29.1940 C.3    66  SER66       0.1924
    125  C        -34.5280   42.6010  -29.0400 C.2    66  SER66       0.2314
    126  O        -34.5600   43.1280  -27.9260 O.2    66  SER66      -0.2863
    127  CB       -36.1020   40.7970  -29.7870 C.3    66  SER66       0.2116
    128  OG       -36.2440   41.3640  -31.0780 O.3    66  SER66      -0.2180
    129  N        -40.6140   43.4450  -27.7320 N.3    71  PHE71      -0.1241
    130  CA       -40.4280   41.9930  -27.7420 C.3    71  PHE71       0.1605
    131  C        -39.2250   41.5740  -26.8940 C.2    71  PHE71       0.2264
    132  O        -38.6850   40.4800  -27.0600 O.2    71  PHE71      -0.2867
    133  CB       -40.2300   41.4910  -29.1810 C.3    71  PHE71       0.0534
    134  CG       -41.4140   41.7270  -30.0820 C.ar   71  PHE71      -0.0203
    135  CD1      -41.8320   43.0200  -30.3850 C.ar   71  PHE71      -0.0042
    136  CD2      -42.1130   40.6540  -30.6240 C.ar   71  PHE71      -0.0042
    137  CE1      -42.9290   43.2400  -31.2140 C.ar   71  PHE71      -0.0003
    138  CE2      -43.2130   40.8630  -31.4540 C.ar   71  PHE71      -0.0003
    139  CZ       -43.6210   42.1590  -31.7490 C.ar   71  PHE71      -0.0000
@<TRIPOS>BOND
     1    43    41    1
     2    42    41    1
     3    41    40    2
     4    54    51    1
     5    54    55    1
     6    53    52    2
     7    40    39    1
     8    51    52    1
     9    51    50    1
    10    39    38    1
    11    55    56    1
    12    56    50    1
    13    50    46   am
    14    38    37    1
    15    47    46    2
    16    46    45    1
    17    37    34    1
    18    12    11    1
    19    36    35    2
    20     9    11   ar
    21     9     7   ar
    22    57    58    1
    23    11    10   ar
    24    35    34    1
    25    35    44   am
    26    45    44    1
    27    45    48    1
    28    34    33    1
    29    68    69    1
    30   139   138   ar
    31   139   137   ar
    32    59    58    1
    33    59    60    2
    34     7     6   ar
    35    73    72    1
    36    16    15    2
    37    58    61    1
    38    10     8   ar
    39    72    69    1
    40    33    21   am
    41   138   136   ar
    42    49    48    1
    43   137   135   ar
    44   128   127    1
    45    69    70    1
    46     6     8   ar
    47     6     5    1
    48    17    18    1
    49    17    14    1
    50   136   134   ar
    51   135   134   ar
    52    21    22    2
    53    21    20    1
    54    15    14    1
    55    15    19   am
    56    31    29   ar
    57    31    32   ar
    58    13    14    1
    59    13     3   am
    60    61    62    1
    61   134   133    1
    62    29    26   ar
    63    20    19    1
    64    20    23    1
    65   127   124    1
    66     5     2    1
    67     2     3    1
    68     2     1    1
    69    62    63    1
    70    70    71    2
    71    70    74   am
    72    32    30   ar
    73     3     4    2
    74   124   125    1
    75   124   123    1
    76   133   130    1
    77   125   126    2
    78   117   116    2
    79    26    24   ar
    80    26    28   ar
    81    74    75    1
    82    23    24    1
    83    30    28   ar
    84    24    25   ar
    85    63    64    1
    86    28    27   ar
    87   123   116   am
    88   116   115    1
    89   130   129    1
    90   130   131    1
    91    64    65    2
    92    80    82   ar
    93    80    79   ar
    94    82    83   ar
    95    75    76    1
    96    75    78    1
    97    25    27   ar
    98   132   131    2
    99    76    77    2
   100    79    78    1
   101    79    81   ar
   102   115   114    1
   103   115   118    1
   104    65    67    1
   105    65    66    1
   106   114   110   am
   107    83    81   ar
   108    83    85   ar
   109   112   113    1
   110   112   109    1
   111   118   119    1
   112   119   120    1
   113    81    84   ar
   114    85    87   ar
   115   109   110    1
   116   109   108    1
   117   110   111    2
   118    87    86   ar
   119    84    86   ar
   120    96    98   ar
   121    96    94   ar
   122   120   121    2
   123   120   122   am
   124    98    97   ar
   125    94    93   ar
   126   108   101   am
   127    97    95   ar
   128   102   101    2
   129    93    95   ar
   130    93    92    1
   131   101   100    1
   132    92    89    1
   133    99   100    1
   134    99    90   am
   135   100   103    1
   136    89    90    1
   137    89    88    1
   138    90    91    2
   139   103   104    1
   140   104   105    1
   141   105   107   ar
   142   105   106   ar
