@<TRIPOS>MOLECULE
tmp/2qljC00.pdb
 81 77 0 0 0
SMALL
GASTEIGER

@<TRIPOS>ATOM
      1  N        -84.2710   26.2200  -16.0570 N.3    30  VAL30      -0.1231
      2  CA       -83.8280   25.7920  -14.7360 C.3    30  VAL30       0.1692
      3  C        -82.8610   24.6340  -14.9110 C.2    30  VAL30       0.2592
      4  O        -83.0660   23.7880  -15.7800 O.2    30  VAL30      -0.2718
      5  CB       -85.0150   25.2800  -13.8900 C.3    30  VAL30       0.0266
      6  CG1      -84.5440   24.8770  -12.5030 C.3    30  VAL30       0.0020
      7  CG2      -86.0620   26.3470  -13.7840 C.3    30  VAL30       0.0020
      8  N        -81.8100   24.5890  -14.0960 N.am   31  ARG31      -0.1966
      9  CA       -80.8580   23.4940  -14.2010 C.3    31  ARG31       0.1729
     10  C        -81.0930   22.5510  -13.0450 C.2    31  ARG31       0.2616
     11  O        -80.3370   22.5390  -12.0810 O.2    31  ARG31      -0.2715
     12  CB       -79.4110   24.0010  -14.1680 C.3    31  ARG31       0.0348
     13  CG       -79.0330   24.8810  -15.3430 C.3    31  ARG31       0.0492
     14  CD       -77.5810   25.3480  -15.2720 C.3    31  ARG31       0.2205
     15  NE       -76.6260   24.2440  -15.1840 N.pl3  31  ARG31      -0.0865
     16  CZ       -75.9350   23.9340  -14.0860 C.cat  31  ARG31       0.5346
     17  NH1      -76.0900   24.6460  -12.9740 N.pl3  31  ARG31       0.1354
     18  NH2      -75.0840   22.9130  -14.0970 N.pl3  31  ARG31       0.1354
     19  N        -82.1460   21.7540  -13.1300 N.am   32  ASN32      -0.1972
     20  CA       -82.4200   20.8200  -12.0550 C.3    32  ASN32       0.1688
     21  C        -81.2680   19.8330  -11.8930 C.2    32  ASN32       0.2292
     22  O        -80.6590   19.4070  -12.8710 O.2    32  ASN32      -0.2864
     23  CB       -83.7320   20.0950  -12.3200 C.3    32  ASN32       0.1181
     24  CG       -84.9180   21.0350  -12.2840 C.2    32  ASN32       0.2629
     25  OD1      -85.1670   21.6990  -11.2780 O.2    32  ASN32      -0.2716
     26  ND2      -85.6520   21.1020  -13.3860 N.am   32  ASN32      -0.0877
     27  N        -73.0850   25.9530  -14.5720 N.3    87  SER87      -0.1202
     28  CA       -74.0840   26.7840  -15.2240 C.3    87  SER87       0.2020
     29  C        -74.2950   26.3880  -16.6820 C.2    87  SER87       0.2619
     30  O        -73.8200   25.3430  -17.1330 O.2    87  SER87      -0.2717
     31  CB       -73.6320   28.2520  -15.1420 C.3    87  SER87       0.2103
     32  OG       -74.5710   29.1410  -15.7260 O.3    87  SER87      -0.2182
     33  N        -75.0380   27.2200  -17.4070 N.am   88  HIS88      -0.1961
     34  CA       -75.2570   26.9990  -18.8290 C.3    88  HIS88       0.1787
     35  C        -74.0080   27.5430  -19.5260 C.2    88  HIS88       0.2620
     36  O        -73.2430   28.3020  -18.9380 O.2    88  HIS88      -0.2715
     37  CB       -76.4820   27.7700  -19.3110 C.3    88  HIS88       0.0785
     38  CG       -77.7770   27.0600  -19.0760 C.ar   88  HIS88       0.0821
     39  ND1      -78.0980   25.8730  -19.7040 N.ar   88  HIS88      -0.2267
     40  CD2      -78.8410   27.3770  -18.3010 C.ar   88  HIS88       0.1154
     41  CE1      -79.3040   25.4920  -19.3230 C.ar   88  HIS88       0.1986
     42  NE2      -79.7770   26.3870  -18.4730 N.ar   88  HIS88      -0.2212
     43  N        -73.7940   27.1600  -20.7740 N.am   89  GLY89      -0.1954
     44  CA       -72.6280   27.6620  -21.4620 C.3    89  GLY89       0.1869
     45  C        -72.6520   27.4200  -22.9520 C.2    89  GLY89       0.2309
     46  O        -73.5360   26.7440  -23.4810 O.2    89  GLY89      -0.2863
     47  N        -68.5570   22.9270  -15.3540 N.3   128  GLN128     -0.1231
     48  CA       -69.6900   22.1070  -15.7660 C.3   128  GLN128      0.1698
     49  C        -70.6270   23.0230  -16.5510 C.2   128  GLN128      0.2592
     50  O        -71.4160   23.7660  -15.9690 O.2   128  GLN128     -0.2718
     51  CB       -70.3940   21.5390  -14.5270 C.3   128  GLN128      0.0381
     52  CG       -71.7540   20.9030  -14.7740 C.3   128  GLN128      0.0905
     53  CD       -71.7280   19.8220  -15.8380 C.2   128  GLN128      0.2608
     54  OE1      -70.7970   19.0160  -15.9050 O.2   128  GLN128     -0.2717
     55  NE2      -72.7620   19.7900  -16.6690 N.am  128  GLN128     -0.0878
     56  N        -70.5080   22.9790  -17.8760 N.am  129  ALA129     -0.1966
     57  CA       -71.3240   23.7990  -18.7690 C.3   129  ALA129      0.1728
     58  C        -71.1550   23.2960  -20.2000 C.2   129  ALA129      0.2616
     59  O        -70.1960   22.5860  -20.4950 O.2   129  ALA129     -0.2715
     60  CB       -70.8950   25.2570  -18.6760 C.3   129  ALA129      0.0334
     61  N        -72.0770   23.6490  -21.0890 N.am  130  CYS130     -0.1968
     62  CA       -71.9560   23.2060  -22.4740 C.3   130  CYS130      0.1712
     63  C        -70.9580   24.1000  -23.1870 C.2   130  CYS130      0.2296
     64  O        -70.6530   25.1960  -22.7200 O.2   130  CYS130     -0.2864
     65  CB       -73.3040   23.2660  -23.1890 C.3   130  CYS130      0.0983
     66  SG       -74.6560   22.3500  -22.3380 S.3   130  CYS130     -0.0798
     67  N        -73.2890   23.0370  -29.4290 N.3   133  THR133     -0.1218
     68  CA       -74.5360   22.2790  -29.5170 C.3   133  THR133      0.1862
     69  C        -74.4260   20.9460  -30.2550 C.2   133  THR133      0.2287
     70  O        -75.4150   20.4390  -30.7860 O.2   133  THR133     -0.2866
     71  CB       -75.6430   23.1250  -30.1770 C.3   133  THR133      0.1770
     72  OG1      -75.1280   23.7310  -31.3690 O.3   133  THR133     -0.2211
     73  CG2      -76.1370   24.2130  -29.2180 C.3   133  THR133      0.0375
     74  N        -73.6430   16.7940  -30.5750 N.3   135  LEU135     -0.1245
     75  CA       -73.8880   15.5650  -29.8240 C.3   135  LEU135      0.1561
     76  C        -72.9070   14.4720  -30.2290 C.2   135  LEU135      0.2260
     77  O        -72.7310   14.1990  -31.4170 O.2   135  LEU135     -0.2867
     78  CB       -75.3120   15.0580  -30.0810 C.3   135  LEU135      0.0270
     79  CG       -76.5000   15.8960  -29.6070 C.3   135  LEU135      0.0019
     80  CD1      -77.7860   15.3140  -30.1580 C.3   135  LEU135      0.0001
     81  CD2      -76.5380   15.9190  -28.0950 C.3   135  LEU135      0.0001
@<TRIPOS>BOND
     1    77    76    2
     2    72    71    1
     3    70    69    2
     4    74    75    1
     5    69    68    1
     6    76    75    1
     7    71    68    1
     8    71    73    1
     9    80    79    1
    10    78    75    1
    11    78    79    1
    12    79    81    1
    13    68    67    1
    14    46    45    2
    15    65    62    1
    16    65    66    1
    17    63    64    2
    18    63    62    1
    19    45    44    1
    20    62    61    1
    21    44    43    1
    22    61    58   am
    23    43    35   am
    24    59    58    2
    25    58    57    1
    26    39    41   ar
    27    39    38   ar
    28    35    36    2
    29    35    34    1
    30    41    42   ar
    31    37    38    1
    32    37    34    1
    33    38    40   ar
    34    34    33    1
    35    57    60    1
    36    57    56    1
    37    42    40   ar
    38    56    49   am
    39    33    29   am
    40    30    29    2
    41    29    28    1
    42    55    53   am
    43    49    50    2
    44    49    48    1
    45     1     2    1
    46    54    53    2
    47    53    52    1
    48     4     3    2
    49    48    47    1
    50    48    51    1
    51    32    31    1
    52    13    14    1
    53    13    12    1
    54    14    15    1
    55    28    31    1
    56    28    27    1
    57    15    16    2
    58     3     2    1
    59     3     8   am
    60    52    51    1
    61     2     5    1
    62     9    12    1
    63     9     8    1
    64     9    10    1
    65    18    16    1
    66    16    17    1
    67     5     7    1
    68     5     6    1
    69    26    24   am
    70    19    10   am
    71    19    20    1
    72    10    11    2
    73    22    21    2
    74    23    24    1
    75    23    20    1
    76    24    25    2
    77    20    21    1
