@<TRIPOS>MOLECULE
tmp/2qllA00.pdb
 157 150 0 0 0
SMALL
GASTEIGER

@<TRIPOS>ATOM
      1  N         31.7720   67.3020   41.4370 N.3    86  TYR86      -0.1241
      2  CA        30.4070   67.7270   41.7910 C.3    86  TYR86       0.1605
      3  C         29.5200   66.5220   42.1230 C.2    86  TYR86       0.2264
      4  O         28.7510   66.0640   41.2860 O.2    86  TYR86      -0.2867
      5  CB        29.8270   68.5000   40.5980 C.3    86  TYR86       0.0534
      6  CG        29.0670   69.7680   40.9490 C.ar   86  TYR86      -0.0201
      7  CD1       28.8870   70.1570   42.2650 C.ar   86  TYR86      -0.0009
      8  CD2       28.4520   70.5250   39.9570 C.ar   86  TYR86      -0.0009
      9  CE1       28.1500   71.3120   42.5910 C.ar   86  TYR86       0.0417
     10  CE2       27.6800   71.6560   40.2740 C.ar   86  TYR86       0.0417
     11  CZ        27.5460   72.0460   41.5900 C.ar   86  TYR86       0.1957
     12  OH        26.8180   73.1760   41.9010 O.3    86  TYR86      -0.2866
     13  N         31.0980   73.7080   39.0940 N.3   130  GLY130     -0.1210
     14  CA        30.7380   73.8340   37.6940 C.3   130  GLY130      0.1956
     15  C         30.5210   72.5410   36.9350 C.2   130  GLY130      0.2612
     16  O         30.4490   71.4540   37.5180 O.2   130  GLY130     -0.2717
     17  N         30.4130   72.6760   35.6170 N.am  131  GLY131     -0.1956
     18  CA        30.1910   71.5650   34.7110 C.3   131  GLY131      0.1869
     19  C         31.3390   70.5830   34.6860 C.2   131  GLY131      0.2309
     20  O         31.1720   69.4460   34.2340 O.2   131  GLY131     -0.2863
     21  N         31.0020   68.1430   37.5470 N.3   134  ARG134     -0.1245
     22  CA        29.8550   67.2980   37.2550 C.3   134  ARG134      0.1563
     23  C         30.1450   66.2970   36.1500 C.2   134  ARG134      0.2260
     24  O         29.5160   65.2410   36.0750 O.2   134  ARG134     -0.2867
     25  CB        28.6180   68.1390   36.9560 C.3   134  ARG134      0.0307
     26  CG        27.3260   67.3620   36.8000 C.3   134  ARG134      0.0489
     27  CD        27.1210   66.3830   37.9180 C.3   134  ARG134      0.2205
     28  NE        26.8690   65.0210   37.4410 N.pl3 134  ARG134     -0.0865
     29  CZ        26.7770   63.9570   38.2380 C.cat 134  ARG134      0.5346
     30  NH1       26.8800   64.1020   39.5610 N.pl3 134  ARG134      0.1354
     31  NH2       26.5980   62.7450   37.7130 N.pl3 134  ARG134      0.1354
     32  N         20.4200   60.9400   36.1000 N.3   458  TRP458     -0.1241
     33  CA        19.6040   61.8500   35.3170 C.3   458  TRP458      0.1605
     34  C         18.4100   61.2640   34.5910 C.2   458  TRP458      0.2264
     35  O         17.9430   61.8220   33.5820 O.2   458  TRP458     -0.2867
     36  CB        20.4750   62.6670   34.3700 C.3   458  TRP458      0.0550
     37  CG        21.6410   63.3000   35.0320 C.ar  458  TRP458      0.0003
     38  CD1       22.9430   62.9260   34.9020 C.ar  458  TRP458      0.0946
     39  CD2       21.6270   64.3810   35.9970 C.ar  458  TRP458      0.0152
     40  NE1       23.7490   63.7280   35.6870 N.ar  458  TRP458     -0.2442
     41  CE2       22.9680   64.6380   36.3530 C.ar  458  TRP458      0.0810
     42  CE3       20.6180   65.1520   36.5850 C.ar  458  TRP458      0.0012
     43  CZ2       23.3270   65.6480   37.2730 C.ar  458  TRP458      0.0191
     44  CZ3       20.9780   66.1680   37.4770 C.ar  458  TRP458      0.0001
     45  CH2       22.3180   66.3890   37.8270 C.ar  458  TRP458      0.0015
     46  N         18.9540   77.4520   33.7750 N.3   534  VAL534     -0.1231
     47  CA        19.7760   77.2820   34.9670 C.3   534  VAL534      0.1692
     48  C         21.2350   77.0110   34.6560 C.2   534  VAL534      0.2592
     49  O         21.7030   75.8750   34.7180 O.2   534  VAL534     -0.2718
     50  CB        19.2300   76.1920   35.8480 C.3   534  VAL534      0.0266
     51  CG1       17.9100   76.6150   36.4200 C.3   534  VAL534      0.0020
     52  CG2       19.1150   74.9080   35.0620 C.3   534  VAL534      0.0020
     53  N         21.9480   78.0750   34.3250 N.am  535  LYS535     -0.1966
     54  CA        23.3690   78.0090   34.0390 C.3   535  LYS535      0.1728
     55  C         23.9250   78.9550   35.0840 C.2   535  LYS535      0.2616
     56  O         23.1530   79.6550   35.7480 O.2   535  LYS535     -0.2715
     57  CB        23.6490   78.5720   32.6280 C.3   535  LYS535      0.0311
     58  CG        22.8220   77.9500   31.4890 C.3   535  LYS535      0.0038
     59  CD        23.4090   76.5970   31.0180 C.3   535  LYS535      0.0206
     60  CE        22.3300   75.5910   30.5480 C.3   535  LYS535      0.1093
     61  NZ        22.2450   74.3290   31.3670 N.3   535  LYS535     -0.1314
     62  N         25.2420   78.9860   35.2430 N.am  536  ARG536     -0.1977
     63  CA        25.8520   79.9220   36.1760 C.3   536  ARG536      0.1597
     64  C         25.5330   81.3340   35.6720 C.2   536  ARG536      0.2287
     65  O         25.3780   81.5490   34.4570 O.2   536  ARG536     -0.2864
     66  CB        27.3680   79.7160   36.2290 C.3   536  ARG536      0.0334
     67  CG        28.0630   79.7690   34.8640 C.3   536  ARG536      0.0492
     68  CD        29.2400   80.7460   34.8630 C.3   536  ARG536      0.2205
     69  NE        30.5210   80.0840   35.1020 N.pl3 536  ARG536     -0.0865
     70  CZ        31.4880   79.9630   34.1960 C.cat 536  ARG536      0.5346
     71  NH1       31.3290   80.4530   32.9720 N.pl3 536  ARG536      0.1354
     72  NH2       32.6180   79.3450   34.5190 N.pl3 536  ARG536      0.1354
     73  N         26.5080   84.0450   29.2850 N.3   541  LYS541     -0.1245
     74  CA        25.4150   83.0740   29.3090 C.3   541  LYS541      0.1561
     75  C         24.0390   83.6990   29.0540 C.2   541  LYS541      0.2260
     76  O         23.0110   83.0260   29.1640 O.2   541  LYS541     -0.2867
     77  CB        25.4070   82.2670   30.6140 C.3   541  LYS541      0.0271
     78  CG        26.6590   81.4420   30.8630 C.3   541  LYS541      0.0035
     79  CD        26.4030   79.9510   30.6890 C.3   541  LYS541      0.0206
     80  CE        27.6890   79.2200   30.3340 C.3   541  LYS541      0.1093
     81  NZ        28.0150   78.1130   31.2720 N.3   541  LYS541     -0.1314
     82  N         21.2290   77.0220   43.1310 N.3   615  TYR615     -0.1227
     83  CA        21.2350   75.9580   42.1370 C.3   615  TYR615      0.1736
     84  C         22.3500   74.9820   42.4610 C.2   615  TYR615      0.2595
     85  O         23.4790   75.3860   42.7250 O.2   615  TYR615     -0.2718
     86  CB        21.3850   76.4930   40.7070 C.3   615  TYR615      0.0548
     87  CG        21.2200   75.4010   39.6570 C.ar  615  TYR615     -0.0200
     88  CD1       20.1590   74.5050   39.7200 C.ar  615  TYR615     -0.0009
     89  CD2       22.1610   75.2280   38.6410 C.ar  615  TYR615     -0.0009
     90  CE1       20.0140   73.4870   38.7850 C.ar  615  TYR615      0.0417
     91  CE2       22.0060   74.2220   37.6830 C.ar  615  TYR615      0.0417
     92  CZ        20.9400   73.3450   37.7790 C.ar  615  TYR615      0.1957
     93  OH        20.8020   72.3320   36.8560 O.3   615  TYR615     -0.2866
     94  N         22.0080   73.7000   42.5150 N.am  616  ARG616     -0.1966
     95  CA        22.9880   72.6780   42.8340 C.3   616  ARG616      0.1729
     96  C         22.5290   71.3420   42.2760 C.2   616  ARG616      0.2616
     97  O         21.4190   71.2270   41.7450 O.2   616  ARG616     -0.2715
     98  CB        23.2200   72.6120   44.3370 C.3   616  ARG616      0.0348
     99  CG        22.0770   72.0100   45.0990 C.3   616  ARG616      0.0492
    100  CD        22.0870   72.4640   46.5430 C.3   616  ARG616      0.2205
    101  NE        20.8810   73.2230   46.8370 N.pl3 616  ARG616     -0.0865
    102  CZ        19.8690   72.7660   47.5610 C.cat 616  ARG616      0.5346
    103  NH1       19.9220   71.5540   48.1030 N.pl3 616  ARG616      0.1354
    104  NH2       18.8130   73.5390   47.7600 N.pl3 616  ARG616      0.1354
    105  N         23.4020   70.3460   42.3570 N.am  617  VAL617     -0.1977
    106  CA        23.0960   69.0300   41.8010 C.3   617  VAL617      0.1596
    107  C         21.7120   68.5170   42.1480 C.2   617  VAL617      0.2287
    108  O         20.9660   68.1120   41.2680 O.2   617  VAL617     -0.2864
    109  CB        24.1600   67.9920   42.1630 C.3   617  VAL617      0.0276
    110  CG1       23.7660   66.6220   41.6310 C.3   617  VAL617      0.0022
    111  CG2       25.5180   68.4270   41.6450 C.3   617  VAL617      0.0022
    112  N         18.9280   70.5600   40.4800 N.3   620  ALA620     -0.1245
    113  CA        18.8580   70.2330   39.0580 C.3   620  ALA620      0.1562
    114  C         18.0240   68.9800   38.9510 C.2   620  ALA620      0.2260
    115  O         17.3190   68.7730   37.9720 O.2   620  ALA620     -0.2867
    116  CB        20.2620   69.9710   38.4900 C.3   620  ALA620      0.0290
    117  N         30.5380   78.4470   23.8360 N.3   639  GLU639     -0.1245
    118  CA        30.2700   77.2070   24.5470 C.3   639  GLU639      0.1567
    119  C         30.9160   76.0050   23.8450 C.2   639  GLU639      0.2260
    120  O         30.6830   75.7640   22.6600 O.2   639  GLU639     -0.2867
    121  CB        28.7540   76.9880   24.6270 C.3   639  GLU639      0.0388
    122  CG        28.0020   78.0780   25.3530 C.3   639  GLU639      0.1160
    123  CD        27.6570   77.6760   26.7680 C.2   639  GLU639      0.3649
    124  OE1       27.1540   76.5480   26.9580 O.co2 639  GLU639     -0.2457
    125  OE2       27.9420   78.4570   27.6990 O.co2 639  GLU639     -0.2457
    126  N         28.0490   71.3400   26.8910 N.3   642  GLY642     -0.1210
    127  CA        26.7710   71.6990   27.4640 C.3   642  GLY642      0.1956
    128  C         26.0550   70.4720   27.9750 C.2   642  GLY642      0.2613
    129  O         25.1680   69.9130   27.3230 O.2   642  GLY642     -0.2717
    130  N         26.4470   70.0890   29.1780 N.am  643  THR643     -0.1938
    131  CA        25.9190   68.9340   29.8820 C.3   643  THR643      0.2028
    132  C         24.4440   69.1240   30.2190 C.2   643  THR643      0.2643
    133  O         23.6170   68.2540   29.9250 O.2   643  THR643     -0.2714
    134  CB        26.7830   68.6560   31.1320 C.3   643  THR643      0.1808
    135  OG1       27.8170   67.7260   30.7930 O.3   643  THR643     -0.2208
    136  CG2       25.9570   68.1060   32.2630 C.3   643  THR643      0.0379
    137  N         24.1110   70.2650   30.8110 N.am  644  GLY644     -0.1939
    138  CA        22.7340   70.5950   31.1360 C.3   644  GLY644      0.2014
    139  C         21.8170   70.4550   29.9330 C.2   644  GLY644      0.2638
    140  O         20.7470   69.8510   30.0160 O.2   644  GLY644     -0.2714
    141  N         22.2670   70.9880   28.8020 N.am  645  ASN645     -0.1972
    142  CA        21.5330   70.9020   27.5470 C.3   645  ASN645      0.1688
    143  C         20.9860   69.5050   27.3900 C.2   645  ASN645      0.2292
    144  O         19.8340   69.3190   27.0270 O.2   645  ASN645     -0.2864
    145  CB        22.4690   71.1830   26.3560 C.3   645  ASN645      0.1181
    146  CG        23.1080   72.5690   26.4030 C.2   645  ASN645      0.2629
    147  OD1       23.8700   72.8900   27.3190 O.2   645  ASN645     -0.2716
    148  ND2       22.8560   73.3700   25.3670 N.am  645  ASN645     -0.0877
    149  N         20.5870   66.9960   29.8120 N.3   647  LYS647     -0.1245
    150  CA        19.7020   66.3910   30.8120 C.3   647  LYS647      0.1561
    151  C         18.2790   66.7950   30.4420 C.2   647  LYS647      0.2260
    152  O         17.3590   65.9820   30.4090 O.2   647  LYS647     -0.2867
    153  CB        20.0740   66.8490   32.2200 C.3   647  LYS647      0.0271
    154  CG        21.5820   66.7680   32.5120 C.3   647  LYS647      0.0035
    155  CD        21.9650   67.7080   33.6220 C.3   647  LYS647      0.0206
    156  CE        23.4660   67.7750   33.7870 C.3   647  LYS647      0.1093
    157  NZ        23.8190   67.9880   35.1970 N.3   647  LYS647     -0.1314
@<TRIPOS>BOND
     1   120   119    2
     2   117   118    1
     3   119   118    1
     4   118   121    1
     5   121   122    1
     6   122   123    1
     7   148   146   am
     8   145   146    1
     9   145   142    1
    10   146   147    2
    11   123   124   ar
    12   123   125   ar
    13   126   127    1
    14   144   143    2
    15   129   128    2
    16   143   142    1
    17   127   128    1
    18   142   141    1
    19   128   130   am
    20   141   139   am
    21    75    76    2
    22    75    74    1
    23   130   131    1
    24    73    74    1
    25    74    77    1
    26   149   150    1
    27   131   132    1
    28   131   134    1
    29   133   132    2
    30   139   140    2
    31   139   138    1
    32   132   137   am
    33    80    79    1
    34    80    81    1
    35   152   151    2
    36   151   150    1
    37    60    59    1
    38    60    61    1
    39    77    78    1
    40    79    78    1
    41   135   134    1
    42   137   138    1
    43   150   153    1
    44    59    58    1
    45   134   136    1
    46    58    57    1
    47   153   154    1
    48   154   155    1
    49    57    54    1
    50    71    70    1
    51    35    34    2
    52   155   156    1
    53    46    47    1
    54   156   157    1
    55    54    53    1
    56    54    55    1
    57    70    72    1
    58    70    69    2
    59    20    19    2
    60    53    48   am
    61    36    37    1
    62    36    33    1
    63    65    64    2
    64    34    33    1
    65    48    49    2
    66    48    47    1
    67    19    18    1
    68    18    17    1
    69    68    67    1
    70    68    69    1
    71    67    66    1
    72    38    37   ar
    73    38    40   ar
    74    47    50    1
    75    37    39   ar
    76    52    50    1
    77    55    62   am
    78    55    56    2
    79    62    63    1
    80    33    32    1
    81    17    15   am
    82    64    63    1
    83    40    41   ar
    84    50    51    1
    85    39    41   ar
    86    39    42   ar
    87    24    23    2
    88    23    22    1
    89    63    66    1
    90    41    43   ar
    91    42    44   ar
    92    26    25    1
    93    26    27    1
    94    93    92    1
    95    15    16    2
    96    15    14    1
    97    25    22    1
    98    22    21    1
    99    43    45   ar
   100    28    27    1
   101    28    29    2
   102    44    45   ar
   103    91    92   ar
   104    91    89   ar
   105    14    13    1
   106    31    29    1
   107    92    90   ar
   108   115   114    2
   109    29    30    1
   110   116   113    1
   111    89    87   ar
   112    90    88   ar
   113   114   113    1
   114   113   112    1
   115    87    88   ar
   116    87    86    1
   117     8    10   ar
   118     8     6   ar
   119    10    11   ar
   120     5     6    1
   121     5     2    1
   122    86    83    1
   123     6     7   ar
   124   108   107    2
   125     4     3    2
   126     1     2    1
   127    11    12    1
   128    11     9   ar
   129   110   109    1
   130   111   109    1
   131    97    96    2
   132     2     3    1
   133   106   107    1
   134   106   109    1
   135   106   105    1
   136    83    84    1
   137    83    82    1
   138     7     9   ar
   139    96   105   am
   140    96    95    1
   141    84    94   am
   142    84    85    2
   143    94    95    1
   144    95    98    1
   145    98    99    1
   146    99   100    1
   147   100   101    1
   148   101   102    2
   149   102   104    1
   150   102   103    1
