@<TRIPOS>MOLECULE
tmp/2qlnA00.pdb
 227 217 0 0 0
SMALL
GASTEIGER

@<TRIPOS>ATOM
      1  N         32.9480   20.1430   39.4870 N.3    77  GLU77      -0.1245
      2  CA        31.6210   20.6080   39.0960 C.3    77  GLU77       0.1567
      3  C         30.6710   19.4510   38.7790 C.2    77  GLU77       0.2260
      4  O         31.0340   18.5060   38.0690 O.2    77  GLU77      -0.2867
      5  CB        31.7180   21.5730   37.9030 C.3    77  GLU77       0.0388
      6  CG        32.6040   22.7980   38.1540 C.3    77  GLU77       0.1160
      7  CD        32.5410   23.8360   37.0450 C.2    77  GLU77       0.3649
      8  OE1       33.4320   24.7130   37.0140 O.co2  77  GLU77      -0.2457
      9  OE2       31.6110   23.7830   36.2090 O.co2  77  GLU77      -0.2457
     10  N         29.4680   25.5360   36.1590 N.3   122  ASN122     -0.1225
     11  CA        29.4210   26.7300   35.3180 C.3   122  ASN122      0.1785
     12  C         28.6170   26.5670   34.0230 C.2   122  ASN122      0.2598
     13  O         27.9230   27.4920   33.5960 O.2   122  ASN122     -0.2718
     14  CB        30.8410   27.1810   34.9850 C.3   122  ASN122      0.1169
     15  CG        31.4610   27.9850   36.0960 C.2   122  ASN122      0.2627
     16  OD1       31.0540   29.1230   36.3480 O.2   122  ASN122     -0.2716
     17  ND2       32.4500   27.4040   36.7740 N.am  122  ASN122     -0.0877
     18  N         28.7380   25.4010   33.3930 N.am  123  GLY123     -0.1942
     19  CA        28.1640   25.1880   32.0670 C.3   123  GLY123      0.2014
     20  C         28.3850   23.7760   31.5860 C.2   123  GLY123      0.2639
     21  O         28.0320   22.8300   32.2850 O.2   123  GLY123     -0.2714
     22  N         28.9950   23.6410   30.4050 N.am  124  GLY124     -0.1939
     23  CA        29.1200   22.3530   29.7130 C.3   124  GLY124      0.2014
     24  C         29.8880   21.2500   30.4270 C.2   124  GLY124      0.2638
     25  O         29.4710   20.0880   30.4160 O.2   124  GLY124     -0.2714
     26  N         31.0170   21.6070   31.0340 N.am  125  LEU125     -0.1977
     27  CA        31.8510   20.6460   31.7660 C.3   125  LEU125      0.1596
     28  C         31.1160   20.0790   32.9870 C.2   125  LEU125      0.2287
     29  O         31.1640   18.8710   33.2480 O.2   125  LEU125     -0.2864
     30  CB        33.1860   21.3030   32.1660 C.3   125  LEU125      0.0297
     31  CG        34.1760   20.6360   33.1310 C.3   125  LEU125      0.0022
     32  CD1       35.6090   21.1100   32.8510 C.3   125  LEU125      0.0001
     33  CD2       33.8020   20.9110   34.5850 C.3   125  LEU125      0.0001
     34  N         28.1120   17.9430   31.8000 N.3   128  LEU128     -0.1245
     35  CA        28.6080   16.6590   31.2890 C.3   128  LEU128      0.1561
     36  C         28.7760   15.6430   32.4130 C.2   128  LEU128      0.2260
     37  O         28.4190   14.4740   32.2540 O.2   128  LEU128     -0.2867
     38  CB        29.9380   16.8300   30.5320 C.3   128  LEU128      0.0270
     39  CG        30.4500   15.6000   29.7640 C.3   128  LEU128      0.0019
     40  CD1       29.6360   15.3470   28.4820 C.3   128  LEU128      0.0001
     41  CD2       31.9400   15.6950   29.4430 C.3   128  LEU128      0.0001
     42  N         33.8940   28.7810   42.0160 N.3   263  TYR263     -0.1241
     43  CA        34.5490   29.7560   41.1400 C.3   263  TYR263      0.1605
     44  C         33.8210   29.8330   39.7970 C.2   263  TYR263      0.2264
     45  O         33.7000   28.8210   39.0990 O.2   263  TYR263     -0.2867
     46  CB        36.0280   29.4050   40.9400 C.3   263  TYR263      0.0534
     47  CG        36.9140   29.9810   42.0140 C.ar  263  TYR263     -0.0201
     48  CD1       37.0610   29.3380   43.2410 C.ar  263  TYR263     -0.0009
     49  CD2       37.5850   31.1870   41.8140 C.ar  263  TYR263     -0.0009
     50  CE1       37.8680   29.8710   44.2380 C.ar  263  TYR263      0.0417
     51  CE2       38.3960   31.7280   42.8070 C.ar  263  TYR263      0.0417
     52  CZ        38.5290   31.0660   44.0130 C.ar  263  TYR263      0.1957
     53  OH        39.3200   31.6000   44.9960 O.3   263  TYR263     -0.2866
     54  N         34.6480   31.6640   37.1120 N.3   265  ASN265     -0.1225
     55  CA        35.4940   32.1140   36.0070 C.3   265  ASN265      0.1785
     56  C         35.8490   30.9800   35.0470 C.2   265  ASN265      0.2597
     57  O         36.8960   30.3420   35.1730 O.2   265  ASN265     -0.2718
     58  CB        36.7570   32.8320   36.5140 C.3   265  ASN265      0.1169
     59  CG        37.5610   31.9890   37.4940 C.2   265  ASN265      0.2627
     60  OD1       37.0450   31.5490   38.5250 O.2   265  ASN265     -0.2716
     61  ND2       38.8350   31.7670   37.1780 N.am  265  ASN265     -0.0877
     62  N         34.9700   30.7440   34.0780 N.am  266  ASP266     -0.1974
     63  CA        35.1670   29.6760   33.1050 C.3   266  ASP266      0.1709
     64  C         35.9270   30.1380   31.8500 C.2   266  ASP266      0.2293
     65  O         35.9980   29.4060   30.8640 O.2   266  ASP266     -0.2864
     66  CB        33.8150   29.0680   32.7190 C.3   266  ASP266      0.1436
     67  CG        32.9460   30.0220   31.9150 C.2   266  ASP266      0.3671
     68  OD1       33.1430   31.2510   32.0000 O.co2 266  ASP266     -0.2456
     69  OD2       32.0570   29.5340   31.1870 O.co2 266  ASP266     -0.2456
     70  N         39.1600   32.3330   32.0150 N.3   268  PHE268     -0.1227
     71  CA        40.5350   32.7890   32.1820 C.3   268  PHE268      0.1736
     72  C         41.0790   32.2880   33.5110 C.2   268  PHE268      0.2595
     73  O         40.5040   32.5670   34.5650 O.2   268  PHE268     -0.2718
     74  CB        40.5710   34.3250   32.1130 C.3   268  PHE268      0.0547
     75  CG        41.9520   34.9160   32.1910 C.ar  268  PHE268     -0.0202
     76  CD1       42.7200   35.0800   31.0410 C.ar  268  PHE268     -0.0042
     77  CD2       42.4770   35.3330   33.4130 C.ar  268  PHE268     -0.0042
     78  CE1       44.0030   35.6350   31.1070 C.ar  268  PHE268     -0.0003
     79  CE2       43.7580   35.8860   33.4900 C.ar  268  PHE268     -0.0003
     80  CZ        44.5200   36.0370   32.3350 C.ar  268  PHE268     -0.0000
     81  N         42.1790   31.5430   33.4620 N.am  269  PHE269     -0.1962
     82  CA        42.7600   30.9920   34.6810 C.3   269  PHE269      0.1771
     83  C         43.4090   32.0640   35.5560 C.2   269  PHE269      0.2619
     84  O         44.2570   32.8260   35.0950 O.2   269  PHE269     -0.2715
     85  CB        43.7690   29.8790   34.3640 C.3   269  PHE269      0.0574
     86  CG        44.5190   29.3790   35.5720 C.ar  269  PHE269     -0.0200
     87  CD1       45.8570   29.7160   35.7660 C.ar  269  PHE269     -0.0042
     88  CD2       43.8830   28.5830   36.5220 C.ar  269  PHE269     -0.0042
     89  CE1       46.5530   29.2580   36.8820 C.ar  269  PHE269     -0.0003
     90  CE2       44.5670   28.1240   37.6420 C.ar  269  PHE269     -0.0003
     91  CZ        45.9070   28.4610   37.8210 C.ar  269  PHE269     -0.0000
     92  N         42.9860   32.1090   36.8170 N.am  270  GLU270     -0.1977
     93  CA        43.5960   32.9550   37.8420 C.3   270  GLU270      0.1602
     94  C         44.1640   32.0640   38.9360 C.2   270  GLU270      0.2287
     95  O         43.4500   31.2230   39.4930 O.2   270  GLU270     -0.2864
     96  CB        42.5600   33.8920   38.4640 C.3   270  GLU270      0.0415
     97  CG        42.1020   35.0310   37.5690 C.3   270  GLU270      0.1163
     98  CD        40.9320   35.8070   38.1680 C.2   270  GLU270      0.3649
     99  OE1       40.4420   35.4300   39.2630 O.co2 270  GLU270     -0.2457
    100  OE2       40.4940   36.7940   37.5370 O.co2 270  GLU270     -0.2457
    101  N         41.2560   28.5810   45.3490 N.3   275  ARG275     -0.1245
    102  CA        40.9380   27.5750   44.3310 C.3   275  ARG275      0.1563
    103  C         41.8750   26.3700   44.4300 C.2   275  ARG275      0.2260
    104  O         41.4320   25.2250   44.3140 O.2   275  ARG275     -0.2867
    105  CB        40.9600   28.1700   42.9180 C.3   275  ARG275      0.0307
    106  CG        40.8430   27.1370   41.7800 C.3   275  ARG275      0.0489
    107  CD        39.4760   26.4120   41.7450 C.3   275  ARG275      0.2205
    108  NE        39.3810   25.5320   40.5770 N.pl3 275  ARG275     -0.0865
    109  CZ        38.2440   25.1760   39.9800 C.cat 275  ARG275      0.5346
    110  NH1       37.0730   25.6050   40.4410 N.pl3 275  ARG275      0.1354
    111  NH2       38.2790   24.3820   38.9170 N.pl3 275  ARG275      0.1354
    112  N         38.9330   17.2310   33.3860 N.3   313  ASP313     -0.1239
    113  CA        39.8990   18.3070   33.1490 C.3   313  ASP313      0.1674
    114  C         41.0690   18.2020   34.1400 C.2   313  ASP313      0.2266
    115  O         41.2180   17.1870   34.8190 O.2   313  ASP313     -0.2867
    116  CB        39.2220   19.6840   33.2040 C.3   313  ASP313      0.1410
    117  CG        39.8550   20.6650   32.2320 C.2   313  ASP313      0.3668
    118  OD1       39.6280   20.5270   31.0040 O.co2 313  ASP313     -0.2456
    119  OD2       40.6050   21.5550   32.6910 O.co2 313  ASP313     -0.2456
    120  N         41.4590   20.0190   36.7610 N.3   315  HIS315     -0.1241
    121  CA        41.0560   20.5630   38.0580 C.3   315  HIS315      0.1621
    122  C         41.3590   19.6230   39.2420 C.2   315  HIS315      0.2264
    123  O         41.8060   20.0950   40.2800 O.2   315  HIS315     -0.2867
    124  CB        39.5980   21.0530   38.0470 C.3   315  HIS315      0.0745
    125  CG        39.2450   21.8820   36.8470 C.ar  315  HIS315      0.0817
    126  ND1       37.9570   21.9870   36.3690 N.ar  315  HIS315     -0.2268
    127  CD2       40.0140   22.6290   36.0170 C.ar  315  HIS315      0.1154
    128  CE1       37.9430   22.7770   35.3110 C.ar  315  HIS315      0.1986
    129  NE2       39.1800   23.1760   35.0730 N.ar  315  HIS315     -0.2212
    130  N         39.0710   19.6040   27.9130 N.3   351  HIS351     -0.1226
    131  CA        37.8430   20.2870   27.4930 C.3   351  HIS351      0.1752
    132  C         38.0410   21.5990   26.7110 C.2   351  HIS351      0.2596
    133  O         37.0600   22.2360   26.3310 O.2   351  HIS351     -0.2718
    134  CB        36.9480   20.5550   28.7080 C.3   351  HIS351      0.0759
    135  CG        36.4640   19.3170   29.3950 C.ar  351  HIS351      0.0818
    136  ND1       35.2930   18.6800   29.0440 N.ar  351  HIS351     -0.2268
    137  CD2       36.9890   18.6040   30.4170 C.ar  351  HIS351      0.1154
    138  CE1       35.1170   17.6280   29.8210 C.ar  351  HIS351      0.1986
    139  NE2       36.1340   17.5570   30.6620 N.ar  351  HIS351     -0.2212
    140  N         39.2860   22.0170   26.4830 N.am  352  THR352     -0.1953
    141  CA        39.5520   23.2270   25.6730 C.3   352  THR352      0.1897
    142  C         41.0020   23.3480   25.2110 C.2   352  THR352      0.2313
    143  O         41.9090   22.8120   25.8510 O.2   352  THR352     -0.2863
    144  CB        39.1290   24.5470   26.3820 C.3   352  THR352      0.1794
    145  OG1       39.2390   25.6450   25.4610 O.3   352  THR352     -0.2208
    146  CG2       40.0010   24.8220   27.6000 C.3   352  THR352      0.0378
    147  N         42.8060   29.4360   29.3660 N.3   357  ALA357     -0.1245
    148  CA        41.9630   28.6020   30.2240 C.3   357  ALA357      0.1562
    149  C         42.7490   27.4930   30.9310 C.2   357  ALA357      0.2260
    150  O         42.2570   26.9020   31.8900 O.2   357  ALA357     -0.2867
    151  CB        40.8170   28.0030   29.4160 C.3   357  ALA357      0.0290
    152  N         45.3300   25.5130   33.2880 N.3   359  GLU359     -0.1245
    153  CA        45.8420   25.7140   34.6400 C.3   359  GLU359      0.1567
    154  C         47.3610   25.6200   34.6670 C.2   359  GLU359      0.2260
    155  O         47.9330   24.5760   34.3540 O.2   359  GLU359     -0.2867
    156  CB        45.2510   24.6980   35.6180 C.3   359  GLU359      0.0388
    157  CG        43.7570   24.8360   35.8630 C.3   359  GLU359      0.1160
    158  CD        43.3020   24.0120   37.0440 C.2   359  GLU359      0.3649
    159  OE1       43.3070   22.7650   36.9470 O.co2 359  GLU359     -0.2457
    160  OE2       42.9560   24.6160   38.0800 O.co2 359  GLU359     -0.2457
    161  N         36.9480   15.6040   23.4300 N.3   429  VAL429     -0.1245
    162  CA        35.5020   15.4590   23.6450 C.3   429  VAL429      0.1561
    163  C         34.6570   15.5120   22.3680 C.2   429  VAL429      0.2260
    164  O         33.4260   15.5270   22.4240 O.2   429  VAL429     -0.2867
    165  CB        34.9910   16.4740   24.7090 C.3   429  VAL429      0.0252
    166  CG1       35.5170   16.0840   26.0990 C.3   429  VAL429      0.0019
    167  CG2       35.4130   17.9010   24.3660 C.3   429  VAL429      0.0019
    168  N         31.2980   13.7050   23.1670 N.3   458  ASN458     -0.1240
    169  CA        30.3150   14.0080   24.2060 C.3   458  ASN458      0.1653
    170  C         28.9000   13.5290   23.8790 C.2   458  ASN458      0.2266
    171  O         28.5880   13.1660   22.7390 O.2   458  ASN458     -0.2867
    172  CB        30.3010   15.5170   24.5020 C.3   458  ASN458      0.1155
    173  CG        31.4320   15.9560   25.4330 C.2   458  ASN458      0.2627
    174  OD1       31.6590   17.1550   25.6190 O.2   458  ASN458     -0.2716
    175  ND2       32.1340   14.9980   26.0260 N.am  458  ASN458     -0.0877
    176  N         34.6600   33.6250   22.0170 N.3   547  TYR547     -0.1227
    177  CA        34.7750   32.5290   21.0500 C.3   547  TYR547      0.1736
    178  C         33.4270   31.9660   20.5970 C.2   547  TYR547      0.2595
    179  O         33.3250   31.4670   19.4830 O.2   547  TYR547     -0.2718
    180  CB        35.7280   31.4180   21.5210 C.3   547  TYR547      0.0548
    181  CG        35.1340   30.3520   22.4140 C.ar  547  TYR547     -0.0200
    182  CD1       34.5410   29.2070   21.8690 C.ar  547  TYR547     -0.0009
    183  CD2       35.2070   30.4590   23.8060 C.ar  547  TYR547     -0.0009
    184  CE1       34.0130   28.2160   22.6840 C.ar  547  TYR547      0.0417
    185  CE2       34.6840   29.4620   24.6360 C.ar  547  TYR547      0.0417
    186  CZ        34.0890   28.3490   24.0690 C.ar  547  TYR547      0.1957
    187  OH        33.5590   27.3620   24.8780 O.3   547  TYR547     -0.2866
    188  N         32.4070   32.0500   21.4550 N.am  548  LYS548     -0.1980
    189  CA        31.0640   31.5500   21.1180 C.3   548  LYS548      0.1596
    190  C         30.3100   32.5160   20.1910 C.2   548  LYS548      0.2287
    191  O         29.2610   32.1740   19.6390 O.2   548  LYS548     -0.2864
    192  CB        30.2530   31.2490   22.3860 C.3   548  LYS548      0.0298
    193  CG        30.7810   30.0660   23.2050 C.3   548  LYS548      0.0038
    194  CD        30.0530   29.9600   24.5510 C.3   548  LYS548      0.0206
    195  CE        30.6100   28.8550   25.4490 C.3   548  LYS548      0.1093
    196  NZ        30.2540   27.4730   24.9530 N.3   548  LYS548     -0.1314
    197  N         35.3700   25.6680   19.9730 N.3   646  GLU646     -0.1231
    198  CA        34.4430   24.9410   20.8520 C.3   646  GLU646      0.1699
    199  C         34.8000   23.4570   20.8280 C.2   646  GLU646      0.2592
    200  O         34.5780   22.7860   19.8200 O.2   646  GLU646     -0.2718
    201  CB        32.9880   25.1580   20.4110 C.3   646  GLU646      0.0402
    202  CG        31.9380   24.6320   21.3870 C.3   646  GLU646      0.1161
    203  CD        31.7720   25.5260   22.5960 C.2   646  GLU646      0.3649
    204  OE1       32.4380   25.2520   23.6190 O.co2 646  GLU646     -0.2457
    205  OE2       30.9940   26.5130   22.5150 O.co2 646  GLU646     -0.2457
    206  N         35.3620   22.9460   21.9250 N.am  647  ALA647     -0.1966
    207  CA        35.8410   21.5620   21.9530 C.3   647  ALA647      0.1728
    208  C         34.7720   20.5740   21.4740 C.2   647  ALA647      0.2617
    209  O         35.0330   19.7370   20.6060 O.2   647  ALA647     -0.2715
    210  CB        36.3620   21.1850   23.3340 C.3   647  ALA647      0.0334
    211  N         33.5660   20.6890   22.0220 N.am  648  SER648     -0.1936
    212  CA        32.4630   19.8460   21.5910 C.3   648  SER648      0.2055
    213  C         31.1780   20.6540   21.4910 C.2   648  SER648      0.2644
    214  O         30.5800   20.7470   20.4120 O.2   648  SER648     -0.2714
    215  CB        32.2890   18.6570   22.5420 C.3   648  SER648      0.2130
    216  OG        31.0950   17.9400   22.2700 O.3   648  SER648     -0.2179
    217  N         30.7830   21.2640   22.6080 N.am  649  GLY649     -0.1939
    218  CA        29.4210   21.7610   22.7850 C.3   649  GLY649      0.2014
    219  C         28.5330   20.5900   23.1820 C.2   649  GLY649      0.2639
    220  O         28.8280   19.4420   22.8360 O.2   649  GLY649     -0.2714
    221  N         27.4730   20.8650   23.9370 N.am  650  THR650     -0.1950
    222  CA        26.4730   19.8440   24.2800 C.3   650  THR650      0.1897
    223  C         25.0640   20.4050   24.1430 C.2   650  THR650      0.2313
    224  O         24.1140   19.6610   23.8990 O.2   650  THR650     -0.2863
    225  CB        26.6480   19.2760   25.7040 C.3   650  THR650      0.1794
    226  OG1       26.7490   20.3540   26.6380 O.3   650  THR650     -0.2208
    227  CG2       27.8930   18.3990   25.7950 C.3   650  THR650      0.0378
@<TRIPOS>BOND
     1   179   178    2
     2   191   190    2
     3   200   199    2
     4   197   198    1
     5   190   189    1
     6   201   198    1
     7   201   202    1
     8   214   213    2
     9   178   177    1
    10   178   188   am
    11   209   208    2
    12   199   198    1
    13   199   206   am
    14   177   180    1
    15   177   176    1
    16   189   188    1
    17   189   192    1
    18   202   203    1
    19   208   207    1
    20   208   211   am
    21   213   212    1
    22   213   217   am
    23   180   181    1
    24   212   211    1
    25   212   215    1
    26   182   181   ar
    27   182   184   ar
    28   206   207    1
    29   207   210    1
    30   216   215    1
    31   163   164    2
    32   163   162    1
    33   192   193    1
    34   181   183   ar
    35   205   203   ar
    36   203   204   ar
    37   217   218    1
    38   184   186   ar
    39   171   170    2
    40   218   219    1
    41   220   219    2
    42   168   169    1
    43   219   221   am
    44   193   194    1
    45   161   162    1
    46   162   165    1
    47   183   185   ar
    48   170   169    1
    49   224   223    2
    50   221   222    1
    51   186   185   ar
    52   186   187    1
    53   223   222    1
    54   169   172    1
    55   222   225    1
    56   167   165    1
    57   172   173    1
    58   194   195    1
    59   165   166    1
    60   196   195    1
    61   142   141    1
    62   142   143    2
    63   173   174    2
    64   173   175   am
    65   145   144    1
    66   141   144    1
    67   141   140    1
    68   225   227    1
    69   225   226    1
    70   133   132    2
    71   144   146    1
    72   140   132   am
    73   132   131    1
    74   131   130    1
    75   131   134    1
    76    40    39    1
    77   134   135    1
    78   136   135   ar
    79   136   138   ar
    80   147   148    1
    81   135   137   ar
    82   151   148    1
    83    41    39    1
    84    23    22    1
    85    23    24    1
    86    39    38    1
    87   138   139   ar
    88   148   149    1
    89    22    20   am
    90    25    24    2
    91   137   139   ar
    92    24    26   am
    93    38    35    1
    94    65    64    2
    95   149   150    2
    96   118   117   ar
    97    26    27    1
    98    76    78   ar
    99    76    75   ar
   100    78    80   ar
   101    69    67   ar
   102    35    34    1
   103    35    36    1
   104    20    19    1
   105    20    21    2
   106    27    30    1
   107    27    28    1
   108    64    63    1
   109    67    68   ar
   110    67    66    1
   111    70    71    1
   112    19    18    1
   113    74    71    1
   114    74    75    1
   115    30    31    1
   116    71    72    1
   117    75    77   ar
   118   117   119   ar
   119   117   116    1
   120    37    36    2
   121    80    79   ar
   122    66    63    1
   123    32    31    1
   124    28    29    2
   125    63    62    1
   126    31    33    1
   127   113   116    1
   128   113   112    1
   129   113   114    1
   130   152   153    1
   131    18    12   am
   132    77    79   ar
   133    81    72   am
   134    81    82    1
   135    72    73    2
   136    13    12    2
   137    12    11    1
   138    62    56   am
   139   114   115    2
   140   155   154    2
   141    85    82    1
   142    85    86    1
   143   153   154    1
   144   153   156    1
   145    82    83    1
   146    14    11    1
   147    14    15    1
   148    56    57    2
   149    56    55    1
   150   129   128   ar
   151   129   127   ar
   152    84    83    2
   153   128   126   ar
   154    11    10    1
   155    83    92   am
   156    86    87   ar
   157    86    88   ar
   158   156   157    1
   159    87    89   ar
   160   157   158    1
   161    55    58    1
   162    55    54    1
   163   127   125   ar
   164    15    16    2
   165    15    17   am
   166     9     7   ar
   167   126   125   ar
   168    58    59    1
   169    88    90   ar
   170   120   121    1
   171    92    93    1
   172   125   124    1
   173    89    91   ar
   174   159   158   ar
   175     8     7   ar
   176   158   160   ar
   177     7     6    1
   178    61    59   am
   179    59    60    2
   180   100    98   ar
   181    97    98    1
   182    97    96    1
   183    90    91   ar
   184    93    96    1
   185    93    94    1
   186     5     6    1
   187     5     2    1
   188   124   121    1
   189   121   122    1
   190     4     3    2
   191    98    99   ar
   192     3     2    1
   193   111   109    1
   194    94    95    2
   195     2     1    1
   196    45    44    2
   197   122   123    2
   198    44    43    1
   199   109   110    1
   200   109   108    2
   201   108   107    1
   202    46    43    1
   203    46    47    1
   204    43    42    1
   205   107   106    1
   206   106   105    1
   207    49    47   ar
   208    49    51   ar
   209    47    48   ar
   210    51    52   ar
   211   105   102    1
   212    48    50   ar
   213    52    50   ar
   214    52    53    1
   215   104   103    2
   216   102   103    1
   217   102   101    1
