@<TRIPOS>MOLECULE
tmp/2qlpE00.pdb
 86 79 0 0 0
SMALL
GASTEIGER

@<TRIPOS>ATOM
      1  N        -32.0880   25.7640    6.6590 N.3    37  ASP37      -0.1239
      2  CA       -33.1610   25.5690    7.6160 C.3    37  ASP37       0.1674
      3  C        -32.5570   25.4170    9.0170 C.2    37  ASP37       0.2266
      4  O        -31.3240   25.3090    9.1690 O.2    37  ASP37      -0.2867
      5  CB       -34.0560   24.3680    7.2600 C.3    37  ASP37       0.1410
      6  CG       -35.4280   24.4430    7.9770 C.2    37  ASP37       0.3668
      7  OD1      -35.9750   25.5730    8.0520 O.co2  37  ASP37      -0.2456
      8  OD2      -35.9320   23.3990    8.4860 O.co2  37  ASP37      -0.2456
      9  N        -33.2470   23.0350   11.5020 N.3    39  LEU39      -0.1245
     10  CA       -33.1670   21.7180   12.1340 C.3    39  LEU39       0.1561
     11  C        -31.9490   20.9230   11.6340 C.2    39  LEU39       0.2260
     12  O        -31.6080   20.9520   10.4450 O.2    39  LEU39      -0.2867
     13  CB       -34.4620   20.9480   11.9200 C.3    39  LEU39       0.0270
     14  CG       -35.6550   21.6170   12.6350 C.3    39  LEU39       0.0019
     15  CD1      -36.9490   20.9080   12.3420 C.3    39  LEU39       0.0001
     16  CD2      -35.4380   21.6750   14.1420 C.3    39  LEU39       0.0001
     17  N        -29.4950   17.1310   12.2020 N.3    41  ARG41      -0.1245
     18  CA       -29.2880   15.8490   12.8490 C.3    41  ARG41       0.1563
     19  C        -27.8110   15.6570   13.1050 C.2    41  ARG41       0.2260
     20  O        -26.9910   15.9160   12.2300 O.2    41  ARG41      -0.2867
     21  CB       -29.8180   14.6860   12.0210 C.3    41  ARG41       0.0307
     22  CG       -31.2580   14.7730   11.6320 C.3    41  ARG41       0.0489
     23  CD       -31.6430   13.5890   10.7520 C.3    41  ARG41       0.2205
     24  NE       -33.0670   13.6030   10.4290 N.pl3  41  ARG41      -0.0865
     25  CZ       -34.0210   13.2040   11.2690 C.cat  41  ARG41       0.5346
     26  NH1      -33.7080   12.7330   12.4770 N.pl3  41  ARG41       0.1354
     27  NH2      -35.2870   13.2760   10.9000 N.pl3  41  ARG41       0.1354
     28  N        -24.8880   12.7480   14.8700 N.3    43  PHE43      -0.1241
     29  CA       -24.7720   11.2900   15.0420 C.3    43  PHE43       0.1605
     30  C        -24.4310   10.8750   16.4700 C.2    43  PHE43       0.2264
     31  O        -23.5110   11.4180   17.0790 O.2    43  PHE43      -0.2867
     32  CB       -23.7880   10.6940   14.0360 C.3    43  PHE43       0.0534
     33  CG       -24.2290   10.8630   12.6170 C.ar   43  PHE43      -0.0203
     34  CD1      -24.1540   12.1000   11.9970 C.ar   43  PHE43      -0.0042
     35  CD2      -24.7480    9.8040   11.9110 C.ar   43  PHE43      -0.0042
     36  CE1      -24.5860   12.2670   10.6900 C.ar   43  PHE43      -0.0003
     37  CE2      -25.1760    9.9640   10.5990 C.ar   43  PHE43      -0.0003
     38  CZ       -25.0990   11.1970    9.9920 C.ar   43  PHE43      -0.0000
     39  N        -29.6010    6.1190   15.2390 N.3    60  LEU60      -0.1231
     40  CA       -28.3420    6.6560   14.7260 C.3    60  LEU60       0.1693
     41  C        -28.2380    8.1800   14.8390 C.2    60  LEU60       0.2592
     42  O        -27.1750    8.7140   15.1440 O.2    60  LEU60      -0.2718
     43  CB       -28.1570    6.1990   13.2780 C.3    60  LEU60       0.0284
     44  CG       -26.8180    6.2930   12.5370 C.3    60  LEU60       0.0019
     45  CD1      -25.6550    5.6720   13.3000 C.3    60  LEU60       0.0001
     46  CD2      -26.9740    5.6120   11.1930 C.3    60  LEU60       0.0001
     47  N        -29.3520    8.8740   14.6150 N.am   61  THR61      -0.1953
     48  CA       -29.3720   10.3400   14.6600 C.3    61  THR61       0.1897
     49  C        -30.3610   10.9110   15.6620 C.2    61  THR61       0.2313
     50  O        -31.3250   10.2620   16.0460 O.2    61  THR61      -0.2863
     51  CB       -29.7440   10.9260   13.2940 C.3    61  THR61       0.1794
     52  OG1      -30.8970   10.2340   12.7850 O.3    61  THR61      -0.2208
     53  CG2      -28.5680   10.8090   12.2970 C.3    61  THR61       0.0378
     54  N        -32.5550   14.7760   16.5440 N.3    63  LEU63      -0.1245
     55  CA       -32.9330   16.1070   16.0960 C.3    63  LEU63       0.1561
     56  C        -32.2900   17.1600   16.9950 C.2    63  LEU63       0.2260
     57  O        -32.3020   17.0160   18.2130 O.2    63  LEU63      -0.2867
     58  CB       -34.4540   16.2580   16.1060 C.3    63  LEU63       0.0270
     59  CG       -35.1950   16.0840   14.7770 C.3    63  LEU63       0.0019
     60  CD1      -34.6300   17.0460   13.7340 C.3    63  LEU63       0.0001
     61  CD2      -35.1420   14.6460   14.2840 C.3    63  LEU63       0.0001
     62  N        -26.3100   16.5900    9.3390 N.3    81  LEU81      -0.1231
     63  CA       -27.3180   16.7130    8.2870 C.3    81  LEU81       0.1693
     64  C        -28.2250   17.9060    8.5350 C.2    81  LEU81       0.2593
     65  O        -28.6770   18.1210    9.6480 O.2    81  LEU81      -0.2718
     66  CB       -28.1520   15.4400    8.1720 C.3    81  LEU81       0.0284
     67  CG       -27.3770   14.1510    7.8620 C.3    81  LEU81       0.0019
     68  CD1      -28.3570   13.0170    7.7460 C.3    81  LEU81       0.0001
     69  CD2      -26.4660   14.2280    6.5960 C.3    81  LEU81       0.0001
     70  N        -28.4770   18.6720    7.4780 N.am   82  GLY82      -0.1942
     71  CA       -29.3930   19.8000    7.5310 C.3    82  GLY82       0.2014
     72  C        -30.3670   19.8280    6.3530 C.2    82  GLY82       0.2639
     73  O        -30.4960   18.8450    5.6240 O.2    82  GLY82      -0.2714
     74  N        -31.0590   20.9540    6.1680 N.am   83  SER83      -0.1949
     75  CA       -32.0730   21.0760    5.1220 C.3    83  SER83       0.1924
     76  C        -32.0160   22.4570    4.4770 C.2    83  SER83       0.2314
     77  O        -31.6400   23.4350    5.1230 O.2    83  SER83      -0.2863
     78  CB       -33.4950   20.8900    5.7020 C.3    83  SER83       0.2116
     79  OG       -33.9610   19.5440    5.5990 O.3    83  SER83      -0.2180
     80  N        -31.9160   17.7520    1.3980 N.3   127  THR127     -0.1218
     81  CA       -30.9550   17.3620    2.4240 C.3   127  THR127      0.1862
     82  C        -29.5690   17.9750    2.1810 C.2   127  THR127      0.2287
     83  O        -29.0560   17.9360    1.0760 O.2   127  THR127     -0.2866
     84  CB       -30.8040   15.8110    2.4470 C.3   127  THR127      0.1770
     85  OG1      -32.0400   15.1990    2.8530 O.3   127  THR127     -0.2211
     86  CG2      -29.6890   15.3600    3.4000 C.3   127  THR127      0.0375
@<TRIPOS>BOND
     1    83    82    2
     2    80    81    1
     3    82    81    1
     4    81    84    1
     5    84    85    1
     6    84    86    1
     7    76    75    1
     8    76    77    2
     9    75    78    1
    10    75    74    1
    11    79    78    1
    12    73    72    2
    13    74    72   am
    14    72    71    1
    15    69    67    1
    16     1     2    1
    17     5     2    1
    18     5     6    1
    19    70    71    1
    20    70    64   am
    21     2     3    1
    22    68    67    1
    23    67    66    1
    24     6     7   ar
    25     6     8   ar
    26    66    63    1
    27    63    64    1
    28    63    62    1
    29    64    65    2
    30     3     4    2
    31    38    37   ar
    32    38    36   ar
    33    24    23    1
    34    24    25    2
    35    12    11    2
    36    37    35   ar
    37    36    34   ar
    38    23    22    1
    39    27    25    1
    40    46    44    1
    41    25    26    1
    42     9    10    1
    43    22    21    1
    44    11    10    1
    45    35    33   ar
    46    13    10    1
    47    13    14    1
    48    34    33   ar
    49    21    18    1
    50    17    18    1
    51    20    19    2
    52    53    51    1
    53    15    14    1
    54    44    43    1
    55    44    45    1
    56    33    32    1
    57    14    16    1
    58    52    51    1
    59    18    19    1
    60    43    40    1
    61    51    48    1
    62    60    59    1
    63    32    29    1
    64    61    59    1
    65    47    48    1
    66    47    41   am
    67    48    49    1
    68    40    41    1
    69    40    39    1
    70    59    58    1
    71    41    42    2
    72    28    29    1
    73    29    30    1
    74    49    50    2
    75    55    58    1
    76    55    54    1
    77    55    56    1
    78    30    31    2
    79    56    57    2
