@<TRIPOS>MOLECULE
tmp/2qlqA00.pdb
 152 141 0 0 0
SMALL
GASTEIGER

@<TRIPOS>ATOM
      1  N         10.3340   13.2380    7.3720 N.3    18  LEU18      -0.1231
      2  CA        10.4320   12.4620    6.1380 C.3    18  LEU18       0.1693
      3  C          9.5080   12.6410    4.9300 C.2    18  LEU18       0.2592
      4  O          9.9160   12.3050    3.8550 O.2    18  LEU18      -0.2718
      5  CB        10.7520   10.9680    6.3530 C.3    18  LEU18       0.0284
      6  CG        11.9000   10.4600    7.2330 C.3    18  LEU18       0.0019
      7  CD1       11.7550    9.0150    7.6060 C.3    18  LEU18       0.0001
      8  CD2       13.2650   10.7220    6.7420 C.3    18  LEU18       0.0001
      9  N          8.2860   13.1280    5.0390 N.am   19  GLY19      -0.1957
     10  CA         7.5610   13.4610    6.2690 C.3    19  GLY19       0.1869
     11  C          6.0730   13.6140    5.9540 C.2    19  GLY19       0.2309
     12  O          5.5220   12.8180    5.1790 O.2    19  GLY19      -0.2863
     13  N          6.0290   11.5810    9.3170 N.3    26  VAL26      -0.1245
     14  CA         6.8880   10.4130    9.4560 C.3    26  VAL26       0.1561
     15  C          8.2910   10.9420    9.7660 C.2    26  VAL26       0.2260
     16  O          8.8200   11.7700    9.0320 O.2    26  VAL26      -0.2867
     17  CB         6.9520    9.5340    8.1620 C.3    26  VAL26       0.0252
     18  CG1        7.7660    8.2660    8.4210 C.3    26  VAL26       0.0019
     19  CG2        5.5630    9.1630    7.6400 C.3    26  VAL26       0.0019
     20  N         11.8330    4.4000   12.3960 N.3    38  ALA38      -0.1231
     21  CA        10.9340    5.3980   11.8620 C.3    38  ALA38       0.1694
     22  C          9.7430    5.5090   12.7990 C.2    38  ALA38       0.2592
     23  O          9.3370    4.5340   13.4250 O.2    38  ALA38      -0.2718
     24  CB        10.4910    5.0330   10.4690 C.3    38  ALA38       0.0304
     25  N          9.2100    6.7190   12.9110 N.am   39  ILE39      -0.1966
     26  CA         8.1170    7.0120   13.8370 C.3    39  ILE39       0.1727
     27  C          7.0460    7.7930   13.1020 C.2    39  ILE39       0.2616
     28  O          7.3050    8.8930   12.6380 O.2    39  ILE39      -0.2715
     29  CB         8.6210    7.8360   15.0640 C.3    39  ILE39       0.0290
     30  CG1        9.9700    7.3090   15.5700 C.3    39  ILE39       0.0022
     31  CG2        7.5770    7.8500   16.1790 C.3    39  ILE39       0.0023
     32  CD1       10.8520    8.3670   16.1600 C.3    39  ILE39       0.0001
     33  N          5.8600    7.2140   12.9600 N.am   40  LYS40      -0.1977
     34  CA         4.7240    7.9210   12.3580 C.3    40  LYS40       0.1596
     35  C          3.9630    8.6400   13.4600 C.2    40  LYS40       0.2287
     36  O          3.4900    7.9960   14.4060 O.2    40  LYS40      -0.2864
     37  CB         3.7990    6.9450   11.6110 C.3    40  LYS40       0.0298
     38  CG         2.6530    7.5850   10.8430 C.3    40  LYS40       0.0038
     39  CD         2.0880    6.6630    9.7660 C.3    40  LYS40       0.0206
     40  CE         0.7550    7.2150    9.2460 C.3    40  LYS40       0.1093
     41  NZ         0.4310    6.9010    7.8080 N.3    40  LYS40      -0.1314
     42  N         -0.8650   -3.9940   11.7680 N.3    46  MET46      -0.1245
     43  CA         0.5920   -4.1760   11.7220 C.3    46  MET46       0.1570
     44  C          1.1460   -5.1320   12.7890 C.2    46  MET46       0.2261
     45  O          2.2720   -5.6140   12.6430 O.2    46  MET46      -0.2867
     46  CB         1.3340   -2.8310   11.8210 C.3    46  MET46       0.0387
     47  CG         1.3500   -1.9610   10.5440 C.3    46  MET46       0.0595
     48  SD         2.5010   -0.5410   10.6600 S.3    46  MET46      -0.1393
     49  CE         4.0810   -1.3970   10.6710 C.3    46  MET46       0.0692
     50  N          6.5900   -3.8930    5.9920 N.3    55  VAL55      -0.1245
     51  CA         7.2620   -3.0530    6.9720 C.3    55  VAL55       0.1561
     52  C          6.9570   -3.5570    8.3770 C.2    55  VAL55       0.2260
     53  O          5.8010   -3.9060    8.6920 O.2    55  VAL55      -0.2867
     54  CB         6.9190   -1.5510    6.8020 C.3    55  VAL55       0.0252
     55  CG1        5.4780   -1.2610    7.2290 C.3    55  VAL55       0.0019
     56  CG2        7.8950   -0.7150    7.5680 C.3    55  VAL55       0.0019
     57  N          3.7140    5.4620   16.0980 N.3    67  ILE67      -0.1245
     58  CA         3.8550    4.1080   15.5760 C.3    67  ILE67       0.1561
     59  C          5.3070    4.0060   15.1670 C.2    67  ILE67       0.2260
     60  O          5.7890    4.7960   14.3740 O.2    67  ILE67      -0.2867
     61  CB         2.9110    3.8080   14.3800 C.3    67  ILE67       0.0252
     62  CG1        1.4420    3.9240   14.7980 C.3    67  ILE67       0.0019
     63  CG2        3.1870    2.4050   13.8170 C.3    67  ILE67       0.0019
     64  CD1        0.4440    4.0150   13.6340 C.3    67  ILE67       0.0001
     65  N          8.5910    1.8530   13.7290 N.3    69  THR69      -0.1203
     66  CA         8.8800    0.7870   12.8200 C.3    69  THR69       0.1994
     67  C         10.3280    0.6860   12.4710 C.2    69  THR69       0.2618
     68  O         11.0980    1.5340   12.7910 O.2    69  THR69      -0.2717
     69  CB         8.0440    0.7730   11.5390 C.3    69  THR69       0.1784
     70  OG1        8.4850    1.7580   10.6510 O.3    69  THR69      -0.2211
     71  CG2        6.6410    0.9440   11.7700 C.3    69  THR69       0.0376
     72  N         10.6670   -0.4040   11.8220 N.am   70  GLU70      -0.1965
     73  CA        11.9490   -0.6230   11.1890 C.3    70  GLU70       0.1733
     74  C         12.2010    0.4450   10.1300 C.2    70  GLU70       0.2616
     75  O         11.3070    0.7950    9.3660 O.2    70  GLU70      -0.2715
     76  CB        11.9000   -1.9910   10.5490 C.3    70  GLU70       0.0429
     77  CG        13.0860   -2.4040    9.7470 C.3    70  GLU70       0.1163
     78  CD        12.6620   -3.1760    8.5290 C.2    70  GLU70       0.3649
     79  OE1       11.4500   -3.4410    8.3780 O.co2  70  GLU70      -0.2457
     80  OE2       13.5380   -3.5020    7.7150 O.co2  70  GLU70      -0.2457
     81  N         13.4310    0.9440   10.0710 N.am   71  TYR71      -0.1960
     82  CA        13.7510    2.0720    9.2050 C.3    71  TYR71       0.1771
     83  C         14.2210    1.6030    7.8250 C.2    71  TYR71       0.2619
     84  O         15.0500    0.6850    7.6920 O.2    71  TYR71      -0.2715
     85  CB        14.7710    3.0130    9.8810 C.3    71  TYR71       0.0574
     86  CG        15.2100    4.1640    9.0100 C.ar   71  TYR71      -0.0198
     87  CD1       14.3480    5.2220    8.7420 C.ar   71  TYR71      -0.0009
     88  CD2       16.4880    4.1780    8.4320 C.ar   71  TYR71      -0.0009
     89  CE1       14.7370    6.2780    7.9290 C.ar   71  TYR71       0.0417
     90  CE2       16.8870    5.2310    7.5940 C.ar   71  TYR71       0.0417
     91  CZ        16.0050    6.2690    7.3600 C.ar   71  TYR71       0.1957
     92  OH        16.3940    7.3130    6.5580 O.3    71  TYR71      -0.2866
     93  N         13.6680    2.2340    6.7980 N.am   72  MET72      -0.1977
     94  CA        13.9920    1.8860    5.4200 C.3    72  MET72       0.1605
     95  C         14.7710    3.0370    4.8440 C.2    72  MET72       0.2287
     96  O         14.2230    4.1240    4.5960 O.2    72  MET72      -0.2864
     97  CB        12.7240    1.5980    4.6140 C.3    72  MET72       0.0413
     98  CG        11.8770    0.4980    5.2250 C.3    72  MET72       0.0598
     99  SD        12.7180   -1.0900    5.2650 S.3    72  MET72      -0.1393
    100  CE        12.8080   -1.5050    3.5120 C.3    72  MET72       0.0692
    101  N         14.0260    5.0990    1.3470 N.3    75  GLY75      -0.1210
    102  CA        12.8140    5.9180    1.2300 C.3    75  GLY75       0.1956
    103  C         11.6760    5.2030    0.5090 C.2    75  GLY75       0.2612
    104  O         11.7260    3.9710    0.3100 O.2    75  GLY75      -0.2717
    105  N         10.6810    5.9520    0.0860 N.am   76  CYS76      -0.1970
    106  CA         9.5880    5.3960   -0.6820 C.3    76  CYS76       0.1712
    107  C          9.9510    5.0970   -2.1090 C.2    76  CYS76       0.2296
    108  O         10.7600    5.7550   -2.6560 O.2    76  CYS76      -0.2864
    109  CB         8.3380    6.2470   -0.5910 C.3    76  CYS76       0.0983
    110  SG         8.5770    7.9680   -0.6910 S.3    76  CYS76      -0.0798
    111  N          8.2550    5.2690   -5.0290 N.3    78  LEU78      -0.1231
    112  CA         7.9040    6.2930   -5.9850 C.3    78  LEU78       0.1693
    113  C          9.1000    7.1950   -6.1950 C.2    78  LEU78       0.2592
    114  O          9.5100    7.4380   -7.3240 O.2    78  LEU78      -0.2718
    115  CB         6.7330    7.1540   -5.4750 C.3    78  LEU78       0.0284
    116  CG         5.7330    7.6220   -6.5040 C.3    78  LEU78       0.0019
    117  CD1        5.1390    8.9590   -6.1550 C.3    78  LEU78       0.0001
    118  CD2        6.2590    7.5880   -7.9150 C.3    78  LEU78       0.0001
    119  N          9.6080    7.7380   -5.0970 N.am   79  ASP79      -0.1974
    120  CA        10.7100    8.7060   -5.1610 C.3    79  ASP79       0.1709
    121  C         12.0340    8.1230   -5.6530 C.2    79  ASP79       0.2293
    122  O         12.8610    8.8370   -6.1750 O.2    79  ASP79      -0.2864
    123  CB        10.9010    9.3620   -3.8020 C.3    79  ASP79       0.1436
    124  CG         9.7220   10.2610   -3.4240 C.2    79  ASP79       0.3671
    125  OD1        8.5610    9.9160   -3.7270 O.co2  79  ASP79      -0.2456
    126  OD2        9.9520   11.3220   -2.8210 O.co2  79  ASP79      -0.2456
    127  N          4.0910    4.6960   -3.9280 N.3   121  ALA121     -0.1245
    128  CA         4.1940    5.6580   -2.8130 C.3   121  ALA121      0.1562
    129  C          4.1490    4.9510   -1.4670 C.2   121  ALA121      0.2260
    130  O          4.5810    5.5190   -0.4530 O.2   121  ALA121     -0.2867
    131  CB         3.0350    6.7380   -2.8890 C.3   121  ALA121      0.0290
    132  N          8.3240    0.8070    0.4490 N.3   124  LEU124     -0.1245
    133  CA         9.5120    1.3890    1.0640 C.3   124  LEU124      0.1561
    134  C         10.7690    0.6180    0.6760 C.2   124  LEU124      0.2260
    135  O         10.6890   -0.6410    0.5490 O.2   124  LEU124     -0.2867
    136  CB         9.3640    1.4220    2.5870 C.3   124  LEU124      0.0270
    137  CG         8.2550    2.3190    3.1410 C.3   124  LEU124      0.0019
    138  CD1        8.1340    2.1540    4.6480 C.3   124  LEU124      0.0001
    139  CD2        8.5060    3.7740    2.7750 C.3   124  LEU124      0.0001
    140  N          4.0460   -1.0420    2.9010 N.3   134  ALA134     -0.1231
    141  CA         3.8000   -0.1760    4.0520 C.3   134  ALA134      0.1694
    142  C          2.4060    0.4590    3.9320 C.2   134  ALA134      0.2592
    143  O          1.6980    0.2100    2.9550 O.2   134  ALA134     -0.2718
    144  CB         4.8820    0.9180    4.1050 C.3   134  ALA134      0.0304
    145  N          2.0440    1.2840    4.9220 N.am  135  ASP135     -0.1974
    146  CA         0.8410    2.1340    4.9400 C.3   135  ASP135      0.1709
    147  C         -0.4830    1.5210    4.4620 C.2   135  ASP135      0.2293
    148  O         -1.1350    2.0660    3.5610 O.2   135  ASP135     -0.2864
    149  CB         1.0890    3.4520    4.1850 C.3   135  ASP135      0.1436
    150  CG         2.2370    4.2810    4.7800 C.2   135  ASP135      0.3671
    151  OD1        3.1700    4.5910    4.0140 O.co2 135  ASP135     -0.2456
    152  OD2        2.2210    4.6140    5.9890 O.co2 135  ASP135     -0.2456
@<TRIPOS>BOND
     1   118   116    1
     2   114   113    2
     3   116   117    1
     4   116   115    1
     5   113   112    1
     6   113   119   am
     7   122   121    2
     8   112   115    1
     9   112   111    1
    10   121   120    1
    11   120   119    1
    12   120   123    1
    13   127   128    1
    14   123   124    1
    15   125   124   ar
    16   124   126   ar
    17   131   128    1
    18   128   129    1
    19   108   107    2
    20   107   106    1
    21   129   130    2
    22   110   109    1
    23   106   109    1
    24   106   105    1
    25   105   103   am
    26   104   103    2
    27   132   133    1
    28   103   102    1
    29   135   134    2
    30   134   133    1
    31   133   136    1
    32   102   101    1
    33   136   137    1
    34   139   137    1
    35   140   141    1
    36   143   142    2
    37   137   138    1
    38   100    99    1
    39   148   147    2
    40     4     3    2
    41   142   141    1
    42   142   145   am
    43   151   150   ar
    44   141   144    1
    45   149   150    1
    46   149   146    1
    47   147   146    1
    48    96    95    2
    49    97    98    1
    50    97    94    1
    51   150   152   ar
    52    95    94    1
    53   145   146    1
    54     3     9   am
    55     3     2    1
    56     9    10    1
    57    12    11    2
    58    98    99    1
    59    94    93    1
    60    11    10    1
    61    50    51    1
    62     2     5    1
    63     2     1    1
    64     5     6    1
    65    92    91    1
    66     8     6    1
    67    93    83   am
    68    54    51    1
    69    54    55    1
    70    54    56    1
    71    51    52    1
    72     6     7    1
    73    91    90   ar
    74    91    89   ar
    75    90    88   ar
    76    19    17    1
    77    84    83    2
    78    80    78   ar
    79    41    40    1
    80    83    82    1
    81    89    87   ar
    82    17    18    1
    83    17    14    1
    84    52    53    2
    85    79    78   ar
    86    88    86   ar
    87    78    77    1
    88    87    86   ar
    89    86    85    1
    90    16    15    2
    91    82    85    1
    92    82    81    1
    93    40    39    1
    94    13    14    1
    95    75    74    2
    96    14    15    1
    97    77    76    1
    98    39    38    1
    99    81    74   am
   100    74    73    1
   101    24    21    1
   102    47    48    1
   103    47    46    1
   104    76    73    1
   105    70    69    1
   106    48    49    1
   107    38    37    1
   108    73    72    1
   109    69    71    1
   110    69    66    1
   111    37    34    1
   112    43    42    1
   113    43    46    1
   114    43    44    1
   115    72    67   am
   116    21    20    1
   117    21    22    1
   118    34    33    1
   119    34    35    1
   120    67    68    2
   121    67    66    1
   122    28    27    2
   123    45    44    2
   124    22    25   am
   125    22    23    2
   126    66    65    1
   127    25    26    1
   128    33    27   am
   129    27    26    1
   130    35    36    2
   131    64    62    1
   132    63    61    1
   133    26    29    1
   134    60    59    2
   135    61    62    1
   136    61    58    1
   137    29    30    1
   138    29    31    1
   139    59    58    1
   140    30    32    1
   141    58    57    1
