@<TRIPOS>MOLECULE
tmp/2qlqB00.pdb
 140 128 0 0 0
SMALL
GASTEIGER

@<TRIPOS>ATOM
      1  N          3.2770   45.2680  -32.9010 N.3    17  LEU17      -0.1301
      2  CA         3.2970   44.3740  -31.7490 C.3    17  LEU17       0.1247
      3  C          4.4810   44.6750  -30.8370 C.3    17  LEU17       0.2009
      4  O          4.3410   44.2160  -29.5590 O.3    17  LEU17      -0.2188
      5  CB         3.3430   42.9140  -32.2060 C.3    17  LEU17       0.0217
      6  CG         2.1210   42.4060  -32.9740 C.3    17  LEU17       0.0015
      7  CD1        2.3550   40.9910  -33.4810 C.3    17  LEU17       0.0000
      8  CD2        0.8740   42.4690  -32.1050 C.3    17  LEU17       0.0000
      9  N          7.4100   43.4640  -35.4180 N.3    25  VAL25      -0.1245
     10  CA         6.5280   42.3160  -35.2640 C.3    25  VAL25       0.1561
     11  C          5.0800   42.7770  -35.4280 C.2    25  VAL25       0.2260
     12  O          4.6790   43.7850  -34.8590 O.2    25  VAL25      -0.2867
     13  CB         6.6840   41.6230  -33.8830 C.3    25  VAL25       0.0252
     14  CG1        6.0720   40.2250  -33.9330 C.3    25  VAL25       0.0019
     15  CG2        8.1640   41.5470  -33.4520 C.3    25  VAL25       0.0019
     16  N          1.8180   35.8250  -37.0710 N.3    37  ALA37      -0.1245
     17  CA         2.7220   36.8650  -36.5780 C.3    37  ALA37       0.1562
     18  C          3.7250   37.0790  -37.6750 C.2    37  ALA37       0.2260
     19  O          4.0990   36.1270  -38.3530 O.2    37  ALA37      -0.2867
     20  CB         3.4380   36.4440  -35.3000 C.3    37  ALA37       0.0290
     21  N          7.3390   39.0760  -38.7240 N.3    39  LYS39      -0.1245
     22  CA         8.5160   39.8610  -38.4160 C.3    39  LYS39       0.1561
     23  C          9.1090   40.4360  -39.7110 C.2    39  LYS39       0.2260
     24  O          9.1800   39.7660  -40.7470 O.2    39  LYS39      -0.2867
     25  CB         9.5630   39.0410  -37.6420 C.3    39  LYS39       0.0271
     26  CG        10.6760   39.8730  -37.0160 C.3    39  LYS39       0.0035
     27  CD        11.9730   39.0750  -36.8890 C.3    39  LYS39       0.0206
     28  CE        12.8930   39.6220  -35.7910 C.3    39  LYS39       0.1093
     29  NZ        13.1680   41.0830  -35.8850 N.3    39  LYS39      -0.1314
     30  N         14.3210   27.8130  -38.3420 N.3    44  MET44      -0.1245
     31  CA        13.1470   27.4470  -37.5660 C.3    44  MET44       0.1570
     32  C         12.4130   26.3790  -38.3800 C.2    44  MET44       0.2261
     33  O         11.3790   25.8610  -37.9640 O.2    44  MET44      -0.2867
     34  CB        12.1970   28.6390  -37.4320 C.3    44  MET44       0.0387
     35  CG        12.4690   29.6650  -36.3440 C.3    44  MET44       0.0595
     36  SD        11.1040   30.8850  -36.3250 S.3    44  MET44      -0.1393
     37  CE         9.8110   29.9790  -35.4860 C.3    44  MET44       0.0692
     38  N          7.2510   27.7250  -31.3760 N.3    53  VAL53      -0.1245
     39  CA         6.4060   28.4840  -32.2870 C.3    53  VAL53       0.1561
     40  C          6.8830   28.1430  -33.7020 C.2    53  VAL53       0.2260
     41  O          8.0930   28.1270  -33.9660 O.2    53  VAL53      -0.2867
     42  CB         6.3510   30.0020  -31.9230 C.3    53  VAL53       0.0252
     43  CG1        6.5940   30.2020  -30.4480 C.3    53  VAL53       0.0019
     44  CG2        7.3220   30.8190  -32.7030 C.3    53  VAL53       0.0019
     45  N          9.2650   37.2520  -41.9810 N.3    66  ILE66      -0.1245
     46  CA         9.2080   35.9360  -41.3210 C.3    66  ILE66       0.1561
     47  C          7.7930   35.7890  -40.7860 C.2    66  ILE66       0.2260
     48  O          7.2570   36.6970  -40.1530 O.2    66  ILE66      -0.2867
     49  CB        10.1780   35.8380  -40.1090 C.3    66  ILE66       0.0252
     50  CG1       11.5250   36.5330  -40.3790 C.3    66  ILE66       0.0019
     51  CG2       10.3110   34.3790  -39.6090 C.3    66  ILE66       0.0019
     52  CD1       12.4720   35.8050  -41.2820 C.3    66  ILE66       0.0001
     53  N          4.9820   33.2870  -38.7740 N.3    68  THR68      -0.1203
     54  CA         4.8060   32.1240  -37.9180 C.3    68  THR68       0.1994
     55  C          3.3790   32.0950  -37.4250 C.2    68  THR68       0.2618
     56  O          2.6220   33.0520  -37.6270 O.2    68  THR68      -0.2717
     57  CB         5.7540   32.1630  -36.6720 C.3    68  THR68       0.1784
     58  OG1        5.5420   33.3660  -35.9330 O.3    68  THR68      -0.2211
     59  CG2        7.2060   32.1150  -37.0720 C.3    68  THR68       0.0376
     60  N          3.0310   30.9930  -36.7560 N.am   69  GLU69      -0.1965
     61  CA         1.8110   30.9010  -35.9650 C.3    69  GLU69       0.1733
     62  C          1.7210   32.0770  -35.0070 C.2    69  GLU69       0.2616
     63  O          2.7210   32.5950  -34.5140 O.2    69  GLU69      -0.2715
     64  CB         1.7510   29.5820  -35.1780 C.3    69  GLU69       0.0429
     65  CG         2.6160   29.5490  -33.9080 C.3    69  GLU69       0.1163
     66  CD         2.5880   28.1880  -33.2550 C.2    69  GLU69       0.3649
     67  OE1        3.6400   27.5250  -33.3110 O.co2  69  GLU69      -0.2457
     68  OE2        1.5220   27.7590  -32.7230 O.co2  69  GLU69      -0.2457
     69  N          0.5030   32.5010  -34.7560 N.am   70  TYR70      -0.1960
     70  CA         0.2710   33.6550  -33.9370 C.3    70  TYR70       0.1771
     71  C         -0.0340   33.1920  -32.5230 C.2    70  TYR70       0.2619
     72  O         -0.8470   32.2610  -32.3080 O.2    70  TYR70      -0.2715
     73  CB        -0.8930   34.4580  -34.5210 C.3    70  TYR70       0.0574
     74  CG        -1.2720   35.6500  -33.7010 C.ar   70  TYR70      -0.0198
     75  CD1       -0.3880   36.6870  -33.5230 C.ar   70  TYR70      -0.0009
     76  CD2       -2.5070   35.7270  -33.0870 C.ar   70  TYR70      -0.0009
     77  CE1       -0.7060   37.7620  -32.7530 C.ar   70  TYR70       0.0417
     78  CE2       -2.8330   36.8040  -32.3210 C.ar   70  TYR70       0.0417
     79  CZ        -1.9190   37.8240  -32.1600 C.ar   70  TYR70       0.1957
     80  OH        -2.2240   38.9320  -31.3820 O.3    70  TYR70      -0.2866
     81  N          0.6130   33.8560  -31.5660 N.am   71  MET71      -0.1977
     82  CA         0.4740   33.5240  -30.1470 C.3    71  MET71       0.1605
     83  C         -0.2450   34.6790  -29.5100 C.2    71  MET71       0.2287
     84  O          0.3400   35.7430  -29.3250 O.2    71  MET71      -0.2864
     85  CB         1.8470   33.2950  -29.5080 C.3    71  MET71       0.0413
     86  CG         2.6330   32.1720  -30.1510 C.3    71  MET71       0.0598
     87  SD         1.7550   30.6060  -29.9970 S.3    71  MET71      -0.1393
     88  CE         1.8450   30.1920  -28.2740 C.3    71  MET71       0.0692
     89  N          0.6980   37.0360  -26.2260 N.3    74  GLY74      -0.1210
     90  CA         2.0020   37.7400  -26.1690 C.3    74  GLY74       0.1956
     91  C          3.0970   37.0490  -25.3570 C.2    74  GLY74       0.2612
     92  O          2.9840   35.8820  -25.0850 O.2    74  GLY74      -0.2717
     93  N          4.1410   37.7810  -24.9550 N.am   75  CYS75      -0.1970
     94  CA         5.2590   37.1870  -24.2180 C.3    75  CYS75       0.1712
     95  C          4.8750   36.8580  -22.7880 C.2    75  CYS75       0.2296
     96  O          4.0640   37.5500  -22.1740 O.2    75  CYS75      -0.2864
     97  CB         6.5940   37.9480  -24.2250 C.3    75  CYS75       0.0983
     98  SG         6.5780   39.5480  -23.3580 S.3    75  CYS75      -0.0798
     99  N          6.4930   36.9560  -19.9210 N.3    77  LEU77      -0.1231
    100  CA         6.7820   38.0190  -18.9530 C.3    77  LEU77       0.1693
    101  C          5.6090   39.0090  -18.7730 C.2    77  LEU77       0.2592
    102  O          5.1880   39.2640  -17.6630 O.2    77  LEU77      -0.2718
    103  CB         8.1020   38.7570  -19.3140 C.3    77  LEU77       0.0284
    104  CG         8.6050   39.8330  -18.3510 C.3    77  LEU77       0.0019
    105  CD1        8.7710   39.2540  -16.9590 C.3    77  LEU77       0.0001
    106  CD2        9.9040   40.4500  -18.8240 C.3    77  LEU77       0.0001
    107  N          5.1270   39.6000  -19.8650 N.am   78  ASP78      -0.1974
    108  CA         4.0250   40.5810  -19.7910 C.3    78  ASP78       0.1709
    109  C          2.7170   39.9270  -19.3120 C.2    78  ASP78       0.2293
    110  O          1.9240   40.5530  -18.6360 O.2    78  ASP78      -0.2864
    111  CB         3.7580   41.2460  -21.1600 C.3    78  ASP78       0.1436
    112  CG         4.9590   41.9860  -21.7250 C.2    78  ASP78       0.3671
    113  OD1        5.8750   42.3750  -20.9660 O.co2  78  ASP78      -0.2456
    114  OD2        4.9830   42.1800  -22.9690 O.co2  78  ASP78      -0.2456
    115  N         10.7760   36.2820  -21.1580 N.3   120  ALA120     -0.1245
    116  CA        10.6800   37.2910  -22.2520 C.3   120  ALA120      0.1562
    117  C         10.6990   36.6640  -23.6240 C.2   120  ALA120      0.2260
    118  O         10.2690   37.3060  -24.5940 O.2   120  ALA120     -0.2867
    119  CB        11.7930   38.3330  -22.1770 C.3   120  ALA120      0.0290
    120  N          6.2390   32.5880  -25.4670 N.3   123  LEU123     -0.1245
    121  CA         5.0060   33.1660  -25.9540 C.3   123  LEU123      0.1561
    122  C          3.8510   32.3120  -25.4960 C.2   123  LEU123      0.2260
    123  O          3.9680   31.0860  -25.3980 O.2   123  LEU123     -0.2867
    124  CB         5.0240   33.3360  -27.4910 C.3   123  LEU123      0.0270
    125  CG         6.0200   34.3090  -28.1180 C.3   123  LEU123      0.0019
    126  CD1        5.9440   34.3100  -29.6340 C.3   123  LEU123      0.0001
    127  CD2        5.8730   35.7250  -27.6280 C.3   123  LEU123      0.0001
    128  N         10.2880   30.4850  -28.1660 N.3   133  ALA133     -0.1231
    129  CA        10.5320   31.3180  -29.3200 C.3   133  ALA133      0.1694
    130  C         11.9680   31.8250  -29.2260 C.2   133  ALA133      0.2592
    131  O         12.6570   31.6020  -28.2150 O.2   133  ALA133     -0.2718
    132  CB         9.5740   32.4980  -29.2980 C.3   133  ALA133      0.0304
    133  N         12.4020   32.5070  -30.2870 N.am  134  ASP134     -0.1974
    134  CA        13.6200   33.3220  -30.2840 C.3   134  ASP134      0.1709
    135  C         14.8670   32.5570  -29.8470 C.2   134  ASP134      0.2293
    136  O         15.4780   32.9050  -28.8340 O.2   134  ASP134     -0.2864
    137  CB        13.4150   34.5790  -29.4190 C.3   134  ASP134      0.1436
    138  CG        12.2450   35.4410  -29.9000 C.2   134  ASP134      0.3671
    139  OD1       11.5300   36.0160  -29.0410 O.co2 134  ASP134     -0.2456
    140  OD2       12.0360   35.5370  -31.1410 O.co2 134  ASP134     -0.2456
@<TRIPOS>BOND
     1    45    46    1
     2    46    47    1
     3    46    49    1
     4    52    50    1
     5    47    48    2
     6    24    23    2
     7    50    49    1
     8    49    51    1
     9    23    22    1
    10    53    54    1
    11    21    22    1
    12    22    25    1
    13    32    33    2
    14    32    31    1
    15    19    18    2
    16    30    31    1
    17    54    55    1
    18    54    57    1
    19    18    17    1
    20    25    26    1
    21    56    55    2
    22    31    34    1
    23    34    35    1
    24    55    60   am
    25    59    57    1
    26    16    17    1
    27    26    27    1
    28    27    28    1
    29    60    61    1
    30    57    58    1
    31    17    20    1
    32    35    36    1
    33    36    37    1
    34    61    64    1
    35    61    62    1
    36    29    28    1
    37    11    10    1
    38    11    12    2
    39     9    10    1
    40    10    13    1
    41    64    65    1
    42    62    69   am
    43    62    63    2
    44    69    70    1
    45    73    70    1
    46    73    74    1
    47    41    40    2
    48    70    71    1
    49    14    13    1
    50    65    66    1
    51    13    15    1
    52    40    39    1
    53    74    75   ar
    54    74    76   ar
    55    75    77   ar
    56     7     6    1
    57    67    66   ar
    58    66    68   ar
    59    76    78   ar
    60     6     5    1
    61     6     8    1
    62     1     2    1
    63    77    79   ar
    64    44    42    1
    65    71    72    2
    66    71    81   am
    67    78    79   ar
    68    39    42    1
    69    39    38    1
    70     5     2    1
    71    79    80    1
    72    42    43    1
    73     2     3    1
    74    81    82    1
    75   140   138   ar
    76     3     4    1
    77   133   134    1
    78   133   130   am
    79   134   135    1
    80   134   137    1
    81    86    87    1
    82    86    85    1
    83    82    83    1
    84    82    85    1
    85    87    88    1
    86   138   137    1
    87   138   139   ar
    88   135   136    2
    89   126   125    1
    90    83    84    2
    91   129   132    1
    92   129   130    1
    93   129   128    1
    94   130   131    2
    95   125   127    1
    96   125   124    1
    97   124   121    1
    98    89    90    1
    99    90    91    1
   100   121   122    1
   101   121   120    1
   102   122   123    2
   103    91    92    2
   104    91    93   am
   105    93    94    1
   106   118   117    2
   107    97    94    1
   108    97    98    1
   109    94    95    1
   110   117   116    1
   111   114   112   ar
   112    95    96    2
   113   116   119    1
   114   116   115    1
   115   112   111    1
   116   112   113   ar
   117   111   108    1
   118    99   100    1
   119   107   108    1
   120   107   101   am
   121   108   109    1
   122   103   100    1
   123   103   104    1
   124   109   110    2
   125   100   101    1
   126   106   104    1
   127   101   102    2
   128   104   105    1
