@<TRIPOS>MOLECULE
tmp/2qluA00.pdb
 90 84 0 0 0
SMALL
GASTEIGER

@<TRIPOS>ATOM
      1  N         37.9710   32.8280   18.6890 N.3     9  LYS9       -0.1231
      2  CA        38.0910   34.1980   19.2350 C.3     9  LYS9        0.1693
      3  C         37.1910   34.5050   20.4250 C.2     9  LYS9        0.2591
      4  O         37.6450   35.0670   21.4440 O.2     9  LYS9       -0.2718
      5  CB        37.9640   35.2530   18.1560 C.3     9  LYS9        0.0285
      6  CG        39.2970   36.0170   17.8820 C.3     9  LYS9        0.0035
      7  CD        40.5660   35.0780   17.6900 C.3     9  LYS9        0.0206
      8  CE        41.9880   35.7710   17.7310 C.3     9  LYS9        0.1093
      9  NZ        42.3040   36.9720   16.7870 N.3     9  LYS9       -0.1314
     10  N         35.9280   34.0880   20.3190 N.am   10  ALA10      -0.1980
     11  CA        34.9260   34.2390   21.3860 C.3    10  ALA10       0.1597
     12  C         34.0900   32.9910   21.5050 C.2    10  ALA10       0.2287
     13  O         33.6250   32.4540   20.5370 O.2    10  ALA10      -0.2864
     14  CB        33.9980   35.3830   21.0670 C.3    10  ALA10       0.0319
     15  N         32.6020   31.8360   18.0060 N.3    17  VAL17      -0.1245
     16  CA        33.1560   32.7050   16.9560 C.3    17  VAL17       0.1561
     17  C         34.5940   32.3570   16.7120 C.2    17  VAL17       0.2260
     18  O         35.4220   32.3280   17.5990 O.2    17  VAL17      -0.2867
     19  CB        32.9000   34.2470   17.1980 C.3    17  VAL17       0.0252
     20  CG1       33.3040   35.0750   16.0140 C.3    17  VAL17       0.0019
     21  CG2       31.4520   34.4550   17.3400 C.3    17  VAL17       0.0019
     22  N         34.6760   36.8040   10.5780 N.3    28  ALA28      -0.1245
     23  CA        34.3410   36.0620   11.8050 C.3    28  ALA28       0.1562
     24  C         33.2740   35.0480   11.4210 C.2    28  ALA28       0.2260
     25  O         32.3220   35.3850   10.7310 O.2    28  ALA28      -0.2867
     26  CB        33.7910   36.9440   12.8880 C.3    28  ALA28       0.0290
     27  N         27.6030   45.6020   13.5720 N.3    58  LEU58      -0.1245
     28  CA        28.4000   44.5940   12.9390 C.3    58  LEU58       0.1561
     29  C         27.8910   44.3040   11.6000 C.2    58  LEU58       0.2260
     30  O         26.6960   44.0960   11.4650 O.2    58  LEU58      -0.2867
     31  CB        28.4260   43.2950   13.7320 C.3    58  LEU58       0.0270
     32  CG        29.2940   42.1530   13.1730 C.3    58  LEU58       0.0019
     33  CD1       30.9050   42.5220   13.2500 C.3    58  LEU58       0.0001
     34  CD2       28.9830   40.8470   13.8650 C.3    58  LEU58       0.0001
     35  N         30.3790   37.2250    9.4520 N.3    78  THR78      -0.1203
     36  CA        30.3170   38.6410    9.5500 C.3    78  THR78       0.1994
     37  C         31.7670   39.1200    9.4250 C.2    78  THR78       0.2618
     38  O         32.6780   38.3470    9.1710 O.2    78  THR78      -0.2717
     39  CB        29.7450   39.0710   10.8980 C.3    78  THR78       0.1784
     40  OG1       30.6340   38.6590   11.8900 O.3    78  THR78      -0.2211
     41  CG2       28.3490   38.4420   11.1400 C.3    78  THR78       0.0376
     42  N         31.9520   40.4180    9.5900 N.am   79  ALA79      -0.1965
     43  CA        33.2430   41.0620    9.5030 C.3    79  ALA79       0.1728
     44  C         33.9890   40.7060   10.7420 C.2    79  ALA79       0.2616
     45  O         33.3730   40.4610   11.8390 O.2    79  ALA79      -0.2715
     46  CB        33.0710   42.6760    9.3510 C.3    79  ALA79       0.0334
     47  N         35.3000   40.7710   10.6340 N.am   80  PHE80      -0.1960
     48  CA        36.1380   40.3710   11.7370 C.3    80  PHE80       0.1771
     49  C         36.7690   41.6690   12.1800 C.2    80  PHE80       0.2619
     50  O         37.2090   42.4730   11.3230 O.2    80  PHE80      -0.2715
     51  CB        37.1490   39.2850   11.3090 C.3    80  PHE80       0.0574
     52  CG        38.1690   38.9390   12.3670 C.ar   80  PHE80      -0.0200
     53  CD1       37.8260   38.1360   13.4360 C.ar   80  PHE80      -0.0042
     54  CD2       39.4280   39.5160   12.3220 C.ar   80  PHE80      -0.0042
     55  CE1       38.7090   37.9110   14.4310 C.ar   80  PHE80      -0.0003
     56  CE2       40.3340   39.2680   13.2980 C.ar   80  PHE80      -0.0003
     57  CZ        39.9670   38.4680   14.3780 C.ar   80  PHE80      -0.0000
     58  N         36.8170   41.8410   13.5050 N.am   81  HIS81      -0.1973
     59  CA        37.3230   43.0390   14.1840 C.3    81  HIS81       0.1656
     60  C         38.4190   42.5600   15.1210 C.2    81  HIS81       0.2291
     61  O         38.2070   42.1270   16.2790 O.2    81  HIS81      -0.2864
     62  CB        36.1780   43.8670   14.8560 C.3    81  HIS81       0.0771
     63  CG        35.2400   44.5190   13.8650 C.ar   81  HIS81       0.0820
     64  ND1       35.6660   45.4480   12.9440 N.ar   81  HIS81      -0.2267
     65  CD2       33.9290   44.3420   13.6100 C.ar   81  HIS81       0.1154
     66  CE1       34.6610   45.8350   12.1780 C.ar   81  HIS81       0.1986
     67  NE2       33.5910   45.1680   12.5500 N.ar   81  HIS81      -0.2212
     68  N         38.7650   43.1580   18.7910 N.3    84  GLY84      -0.1210
     69  CA        38.0060   42.2920   19.6500 C.3    84  GLY84       0.1956
     70  C         36.9410   43.0870   20.3730 C.2    84  GLY84       0.2612
     71  O         36.5100   44.1080   19.8740 O.2    84  GLY84      -0.2717
     72  N         36.5080   42.5990   21.5310 N.am   85  SER85      -0.1952
     73  CA        35.4460   43.2300   22.2560 C.3    85  SER85       0.1924
     74  C         35.9520   44.1940   23.3030 C.2    85  SER85       0.2314
     75  O         37.1160   44.1570   23.6990 O.2    85  SER85      -0.2863
     76  CB        34.5110   42.1550   22.9060 C.3    85  SER85       0.2116
     77  OG        35.1430   41.5500   23.9760 O.3    85  SER85      -0.2180
     78  N         31.9820   45.4020   19.8460 N.3   141  LEU141     -0.1245
     79  CA        33.3120   45.1100   19.2870 C.3   141  LEU141      0.1561
     80  C         33.9880   46.4890   18.9460 C.2   141  LEU141      0.2260
     81  O         33.3190   47.5040   18.8900 O.2   141  LEU141     -0.2867
     82  CB        33.1280   44.2410   18.0440 C.3   141  LEU141      0.0270
     83  CG        32.4060   42.8950   18.2320 C.3   141  LEU141      0.0019
     84  CD1       32.2610   42.2710   16.7820 C.3   141  LEU141      0.0001
     85  CD2       33.1720   41.9700   19.1080 C.3   141  LEU141      0.0001
     86  N         27.1620   43.9590   18.2100 N.3   151  ALA151     -0.1301
     87  CA        27.2220   42.5960   17.6800 C.3   151  ALA151      0.1247
     88  C         26.2990   41.7100   18.5310 C.3   151  ALA151      0.2009
     89  O         25.8510   42.1350   19.6640 O.3   151  ALA151     -0.2188
     90  CB        28.6720   42.0390   17.7530 C.3   151  ALA151      0.0233
@<TRIPOS>BOND
     1    38    37    2
     2    46    43    1
     3    37    36    1
     4    37    42   am
     5    35    36    1
     6    43    42    1
     7    43    44    1
     8    36    39    1
     9    22    23    1
    10    47    44   am
    11    47    48    1
    12    25    24    2
    13    44    45    2
    14    39    41    1
    15    39    40    1
    16    51    48    1
    17    51    52    1
    18    50    49    2
    19    24    23    1
    20    30    29    2
    21    29    28    1
    22    48    49    1
    23    23    26    1
    24    66    67   ar
    25    66    64   ar
    26    49    58   am
    27    54    52   ar
    28    54    56   ar
    29    52    53   ar
    30    67    65   ar
    31    28    27    1
    32    28    31    1
    33    64    63   ar
    34    32    33    1
    35    32    31    1
    36    32    34    1
    37    56    57   ar
    38    53    55   ar
    39    58    59    1
    40    65    63   ar
    41    63    62    1
    42    59    62    1
    43    59    60    1
    44    57    55   ar
    45    60    61    2
    46    20    19    1
    47    17    16    1
    48    17    18    2
    49    84    83    1
    50     9     8    1
    51    16    19    1
    52    16    15    1
    53    19    21    1
    54    87    90    1
    55    87    86    1
    56    87    88    1
    57     7     8    1
    58     7     6    1
    59     6     5    1
    60    82    83    1
    61    82    79    1
    62     5     2    1
    63    83    85    1
    64    88    89    1
    65     1     2    1
    66    68    69    1
    67    81    80    2
    68    80    79    1
    69     2     3    1
    70    79    78    1
    71    69    70    1
    72    71    70    2
    73    10     3   am
    74    10    11    1
    75    70    72   am
    76     3     4    2
    77    13    12    2
    78    14    11    1
    79    11    12    1
    80    72    73    1
    81    73    76    1
    82    73    74    1
    83    76    77    1
    84    74    75    2
