@<TRIPOS>MOLECULE
tmp/2qm6B00.pdb
 105 98 0 0 0
SMALL
GASTEIGER

@<TRIPOS>ATOM
      1  N         48.1470   -6.4220   33.3870 N.3     1  THR1       -0.1218
      2  CA        46.6720   -6.4190   33.5460 C.3     1  THR1        0.1862
      3  C         45.9990   -6.8430   32.2410 C.2     1  THR1        0.2287
      4  O         46.5090   -6.6170   31.1220 O.2     1  THR1       -0.2866
      5  CB        46.1920   -5.0240   34.0030 C.3     1  THR1        0.1770
      6  OG1       46.9610   -4.6300   35.1470 O.3     1  THR1       -0.2211
      7  CG2       44.7030   -4.9790   34.3780 C.3     1  THR1        0.0375
      8  N         44.8250   -9.0940   37.3070 N.3    19  THR19      -0.1218
      9  CA        46.1730   -8.5460   37.1480 C.3    19  THR19       0.1862
     10  C         47.1410   -9.0500   38.1930 C.2    19  THR19       0.2287
     11  O         46.7220   -9.5080   39.2440 O.2    19  THR19      -0.2866
     12  CB        46.1260   -6.9950   37.2180 C.3    19  THR19       0.1770
     13  OG1       47.3880   -6.4590   36.8200 O.3    19  THR19      -0.2211
     14  CG2       45.7640   -6.4970   38.6230 C.3    19  THR19       0.0375
     15  N         49.5600   -6.6910   38.4560 N.3    21  ASN21      -0.1240
     16  CA        49.9960   -5.2880   38.4370 C.3    21  ASN21       0.1653
     17  C         50.9260   -5.0060   37.2610 C.2    21  ASN21       0.2266
     18  O         50.4450   -4.9190   36.1350 O.2    21  ASN21      -0.2867
     19  CB        50.4920   -4.7470   39.7920 C.3    21  ASN21       0.1155
     20  CG        50.7420   -3.2520   39.7500 C.2    21  ASN21       0.2627
     21  OD1       50.1610   -2.5420   38.9220 O.2    21  ASN21      -0.2716
     22  ND2       51.6260   -2.7710   40.6040 N.am   21  ASN21      -0.0877
     23  N         51.2250   -5.9790   43.6980 N.3    40  GLU40      -0.1245
     24  CA        50.0670   -5.1260   43.9330 C.3    40  GLU40       0.1567
     25  C         50.2620   -4.1710   45.1080 C.2    40  GLU40       0.2260
     26  O         49.4990   -3.2080   45.2590 O.2    40  GLU40      -0.2867
     27  CB        48.8110   -5.9670   44.1300 C.3    40  GLU40       0.0388
     28  CG        47.5920   -5.4490   43.3710 C.3    40  GLU40       0.1160
     29  CD        47.6430   -5.7620   41.8910 C.2    40  GLU40       0.3649
     30  OE1       47.7320   -6.9650   41.5050 O.co2  40  GLU40      -0.2457
     31  OE2       47.5720   -4.8010   41.1000 O.co2  40  GLU40      -0.2457
     32  N         50.3080   -0.4360   44.5820 N.3    43  ASP43      -0.1239
     33  CA        49.0530    0.2890   44.3930 C.3    43  ASP43       0.1674
     34  C         48.5960    1.0100   45.6560 C.2    43  ASP43       0.2266
     35  O         47.6770    1.8320   45.5850 O.2    43  ASP43      -0.2867
     36  CB        47.9430   -0.6410   43.8930 C.3    43  ASP43       0.1410
     37  CG        47.9670   -0.8490   42.3700 C.2    43  ASP43       0.3668
     38  OD1       48.7710   -0.2160   41.6570 O.co2  43  ASP43      -0.2456
     39  OD2       47.1460   -1.6470   41.8830 O.co2  43  ASP43      -0.2456
     40  N         52.2340    4.4280   38.1480 N.3    54  TYR54      -0.1241
     41  CA        51.3480    5.1150   37.1940 C.3    54  TYR54       0.1605
     42  C         51.2230    6.6010   37.4820 C.2    54  TYR54       0.2264
     43  O         50.3640    7.2800   36.9170 O.2    54  TYR54      -0.2867
     44  CB        49.9680    4.4260   37.1530 C.3    54  TYR54       0.0534
     45  CG        50.1490    2.9430   37.0210 C.ar   54  TYR54      -0.0201
     46  CD1       50.6790    2.3970   35.8550 C.ar   54  TYR54      -0.0009
     47  CD2       49.8610    2.0830   38.0820 C.ar   54  TYR54      -0.0009
     48  CE1       50.8920    1.0250   35.7430 C.ar   54  TYR54       0.0417
     49  CE2       50.0840    0.7110   37.9800 C.ar   54  TYR54       0.0417
     50  CZ        50.5940    0.1940   36.8110 C.ar   54  TYR54       0.1957
     51  OH        50.8390   -1.1570   36.6980 O.3    54  TYR54      -0.2866
     52  N         42.5680    0.2220   43.5710 N.3    72  SER72      -0.1202
     53  CA        42.7180   -0.0820   42.1510 C.3    72  SER72       0.2020
     54  C         42.0760    0.9990   41.2940 C.2    72  SER72       0.2619
     55  O         41.2630    1.8190   41.7770 O.2    72  SER72      -0.2717
     56  CB        42.0260   -1.4320   41.8700 C.3    72  SER72       0.2103
     57  OG        42.2220   -1.8730   40.5270 O.3    72  SER72      -0.2182
     58  N         42.4340    0.9850   40.0090 N.am   73  SER73      -0.1937
     59  CA        41.7480    1.7670   38.9870 C.3    73  SER73       0.2055
     60  C         40.9190    0.8730   38.0560 C.2    73  SER73       0.2642
     61  O         40.2900    1.3850   37.1180 O.2    73  SER73      -0.2714
     62  CB        42.7430    2.5720   38.1420 C.3    73  SER73       0.2130
     63  OG        43.5440    3.4440   38.9310 O.3    73  SER73      -0.2179
     64  N         40.9150   -0.4480   38.3010 N.am   74  MET74      -0.1976
     65  CA        40.2330   -1.3700   37.3920 C.3    74  MET74       0.1605
     66  C         38.7370   -1.0550   37.2950 C.2    74  MET74       0.2287
     67  O         38.0690   -0.7850   38.3030 O.2    74  MET74      -0.2864
     68  CB        40.5140   -2.8250   37.7570 C.3    74  MET74       0.0413
     69  CG        41.9690   -3.1940   37.4740 C.3    74  MET74       0.0598
     70  SD        42.3640   -4.9580   37.6820 S.3    74  MET74      -0.1393
     71  CE        42.5230   -5.1130   39.4670 C.3    74  MET74       0.0692
     72  N         42.8980   -2.9230   30.7390 N.3    92  PRO92      -0.2102
     73  CA        44.0560   -2.6280   31.5660 C.3    92  PRO92       0.1504
     74  C         44.5960   -1.2280   31.2980 C.2    92  PRO92       0.2576
     75  O         44.0600   -0.4930   30.4390 O.2    92  PRO92      -0.2718
     76  CB        45.0840   -3.6520   31.0760 C.3    92  PRO92       0.0282
     77  CG        44.7700   -3.8180   29.6350 C.3    92  PRO92       0.0208
     78  CD        43.2560   -3.7380   29.5610 C.3    92  PRO92       0.0893
     79  N         45.6260   -0.8440   32.0520 N.am   93  GLY93      -0.1943
     80  CA        46.2870    0.4370   31.8190 C.3    93  GLY93       0.2014
     81  C         46.5550    1.3090   33.0310 C.2    93  GLY93       0.2639
     82  O         46.7880    2.5000   32.8890 O.2    93  GLY93      -0.2714
     83  N         46.5200    0.7350   34.2270 N.am   94  GLY94      -0.1954
     84  CA        46.7880    1.4900   35.4600 C.3    94  GLY94       0.1869
     85  C         45.8760    2.6950   35.5620 C.2    94  GLY94       0.2309
     86  O         44.6600    2.5810   35.4010 O.2    94  GLY94      -0.2863
     87  N         45.2330    4.8360   33.5250 N.3    96  ARG96      -0.1231
     88  CA        44.5280    5.0920   32.2690 C.3    96  ARG96       0.1694
     89  C         43.2770    4.2520   32.0660 C.2    96  ARG96       0.2591
     90  O         42.5190    4.5010   31.1280 O.2    96  ARG96      -0.2718
     91  CB        45.4870    4.9490   31.0840 C.3    96  ARG96       0.0321
     92  CG        46.5300    6.0880   30.9700 C.3    96  ARG96       0.0489
     93  CD        47.7990    5.7850   31.7830 C.3    96  ARG96       0.2205
     94  NE        48.4340    4.5520   31.3070 N.pl3  96  ARG96      -0.0865
     95  CZ        49.5340    4.0090   31.8160 C.cat  96  ARG96       0.5346
     96  NH1       50.1610    4.5800   32.8260 N.pl3  96  ARG96       0.1354
     97  NH2       50.0040    2.8840   31.3030 N.pl3  96  ARG96       0.1354
     98  N         43.0330    3.2830   32.9500 N.am   97  ILE97      -0.1980
     99  CA        41.8570    2.4170   32.7710 C.3    97  ILE97       0.1595
    100  C         40.5750    3.2360   32.7610 C.2    97  ILE97       0.2287
    101  O         39.7160    3.0470   31.8930 O.2    97  ILE97      -0.2864
    102  CB        41.7850    1.3690   33.8820 C.3    97  ILE97       0.0276
    103  CG1       42.9520    0.4000   33.7080 C.3    97  ILE97       0.0022
    104  CG2       40.4560    0.6210   33.8120 C.3    97  ILE97       0.0022
    105  CD1       43.1930   -0.5700   34.8720 C.3    97  ILE97       0.0001
@<TRIPOS>BOND
     1    78    77    1
     2    78    72    1
     3    77    76    1
     4    75    74    2
     5    72    73    1
     6    92    91    1
     7    92    93    1
     8    76    73    1
     9    91    88    1
    10     4     3    2
    11    90    89    2
    12    74    73    1
    13    74    79   am
    14    97    95    1
    15    94    93    1
    16    94    95    2
    17    95    96    1
    18    80    79    1
    19    80    81    1
    20   101   100    2
    21    89    88    1
    22    89    98   am
    23     3     2    1
    24    88    87    1
    25   100    99    1
    26    99    98    1
    27    99   102    1
    28    82    81    2
    29    81    83   am
    30     1     2    1
    31     2     5    1
    32   103   102    1
    33   103   105    1
    34   104   102    1
    35     5     7    1
    36     5     6    1
    37    83    84    1
    38    86    85    2
    39    84    85    1
    40    48    46   ar
    41    48    50   ar
    42    46    45   ar
    43    18    17    2
    44    51    50    1
    45    50    49   ar
    46    13    12    1
    47    43    42    2
    48    45    44    1
    49    45    47   ar
    50    61    60    2
    51     9    12    1
    52     9     8    1
    53     9    10    1
    54    44    41    1
    55    41    42    1
    56    41    40    1
    57    12    14    1
    58    17    16    1
    59    66    65    1
    60    66    67    2
    61    65    68    1
    62    65    64    1
    63    69    70    1
    64    69    68    1
    65    70    71    1
    66    49    47   ar
    67    60    64   am
    68    60    59    1
    69    62    63    1
    70    62    59    1
    71    10    11    2
    72    16    15    1
    73    16    19    1
    74    21    20    2
    75    59    58    1
    76    20    19    1
    77    20    22   am
    78    58    54   am
    79    57    56    1
    80    31    29   ar
    81    54    55    2
    82    54    53    1
    83    30    29   ar
    84    38    37   ar
    85    56    53    1
    86    39    37   ar
    87    29    28    1
    88    53    52    1
    89    37    36    1
    90    28    27    1
    91    23    24    1
    92    36    33    1
    93    24    27    1
    94    24    25    1
    95    33    32    1
    96    33    34    1
    97    25    26    2
    98    35    34    2
