@<TRIPOS>MOLECULE
tmp/2qm9A00.pdb
 213 198 0 0 0
SMALL
GASTEIGER

@<TRIPOS>ATOM
      1  N         -2.7460   -2.0150   24.2700 N.3    24  PHE24      -0.1241
      2  CA        -3.7720   -2.8620   23.7010 C.3    24  PHE24       0.1605
      3  C         -5.1510   -2.2000   23.8340 C.2    24  PHE24       0.2264
      4  O         -5.9960   -2.3520   22.9540 O.2    24  PHE24      -0.2867
      5  CB        -3.7400   -4.2360   24.3580 C.3    24  PHE24       0.0534
      6  CG        -4.7190   -5.2030   23.7830 C.ar   24  PHE24      -0.0203
      7  CD1       -4.7910   -5.4220   22.4090 C.ar   24  PHE24      -0.0042
      8  CD2       -5.5710   -5.9050   24.6100 C.ar   24  PHE24      -0.0042
      9  CE1       -5.7160   -6.3120   21.8850 C.ar   24  PHE24      -0.0003
     10  CE2       -6.4770   -6.8060   24.1020 C.ar   24  PHE24      -0.0003
     11  CZ        -6.5680   -7.0060   22.7510 C.ar   24  PHE24      -0.0000
     12  N         -5.2060    0.2720   20.9840 N.3    27  TYR27      -0.1227
     13  CA        -5.3620   -0.4380   19.7210 C.3    27  TYR27       0.1736
     14  C         -6.8170   -0.8040   19.5020 C.2    27  TYR27       0.2595
     15  O         -7.3630   -0.6080   18.4270 O.2    27  TYR27      -0.2718
     16  CB        -4.5240   -1.7110   19.6970 C.3    27  TYR27       0.0548
     17  CG        -4.8340   -2.6000   18.5080 C.ar   27  TYR27      -0.0200
     18  CD1       -4.5200   -2.1850   17.2150 C.ar   27  TYR27      -0.0009
     19  CD2       -5.4500   -3.8350   18.6660 C.ar   27  TYR27      -0.0009
     20  CE1       -4.7990   -2.9560   16.1190 C.ar   27  TYR27       0.0417
     21  CE2       -5.7340   -4.6310   17.5590 C.ar   27  TYR27       0.0417
     22  CZ        -5.4070   -4.1780   16.2820 C.ar   27  TYR27       0.1957
     23  OH        -5.6640   -4.9410   15.1660 O.3    27  TYR27      -0.2866
     24  N         -7.4420   -1.3290   20.5430 N.am   28  MET28      -0.1979
     25  CA        -8.8280   -1.7270   20.4780 C.3    28  MET28       0.1605
     26  C         -9.7420   -0.5170   20.2700 C.2    28  MET28       0.2287
     27  O        -10.7640   -0.6220   19.6060 O.2    28  MET28      -0.2864
     28  CB        -9.2040   -2.4690   21.7550 C.3    28  MET28       0.0413
     29  CG        -8.6540   -3.8770   21.8360 C.3    28  MET28       0.0598
     30  SD        -9.6510   -4.8840   22.9540 S.3    28  MET28      -0.1393
     31  CE        -8.9040   -4.5490   24.5560 C.3    28  MET28       0.0692
     32  N         -9.8480    0.4080   16.6210 N.3    31  VAL31      -0.1245
     33  CA       -10.5340   -0.6050   15.8560 C.3    31  VAL31       0.1561
     34  C        -12.0560   -0.4460   16.0090 C.2    31  VAL31       0.2260
     35  O        -12.8160   -0.8690   15.1380 O.2    31  VAL31      -0.2867
     36  CB       -10.0280   -1.9950   16.3040 C.3    31  VAL31       0.0252
     37  CG1      -10.9520   -3.0820   15.8480 C.3    31  VAL31       0.0019
     38  CG2       -8.6010   -2.2260   15.7950 C.3    31  VAL31       0.0019
     39  N        -13.7920   -1.2340   19.1230 N.3    33  VAL33      -0.1245
     40  CA       -14.3090   -2.0650   20.2130 C.3    33  VAL33       0.1561
     41  C        -14.9280   -1.1590   21.2900 C.2    33  VAL33       0.2260
     42  O        -14.3770   -0.1110   21.6070 O.2    33  VAL33      -0.2867
     43  CB       -13.1990   -2.9770   20.8510 C.3    33  VAL33       0.0252
     44  CG1      -13.8070   -4.0020   21.8320 C.3    33  VAL33       0.0019
     45  CG2      -12.3700   -3.7000   19.7880 C.3    33  VAL33       0.0019
     46  N        -11.7130   -7.7380   27.5100 N.3    41  ALA41      -0.1245
     47  CA       -10.6990   -8.2630   26.5900 C.3    41  ALA41       0.1562
     48  C         -9.2900   -7.9520   27.0920 C.2    41  ALA41       0.2260
     49  O         -8.3870   -8.7690   26.9690 O.2    41  ALA41      -0.2867
     50  CB       -10.9000   -7.7010   25.1870 C.3    41  ALA41       0.0290
     51  N         -7.6270  -10.3380   29.9630 N.3    44  ALA44      -0.1245
     52  CA        -7.8210  -11.7860   29.7540 C.3    44  ALA44       0.1562
     53  C         -6.5770  -12.6980   29.7010 C.2    44  ALA44       0.2260
     54  O         -6.6850  -13.8800   30.0300 O.2    44  ALA44      -0.2867
     55  CB        -8.6900  -12.0270   28.5150 C.3    44  ALA44       0.0290
     56  N         -4.7570  -14.4440   27.0750 N.3    46  PRO46      -0.2116
     57  CA        -5.0770  -15.6640   26.3180 C.3    46  PRO46       0.1372
     58  C         -3.8970  -16.5870   26.0040 C.2    46  PRO46       0.2244
     59  O         -2.7450  -16.1570   25.9870 O.2    46  PRO46      -0.2868
     60  CB        -5.5830  -15.1040   24.9980 C.3    46  PRO46       0.0268
     61  CG        -4.7610  -13.8770   24.8430 C.3    46  PRO46       0.0207
     62  CD        -4.7800  -13.2540   26.2070 C.3    46  PRO46       0.0892
     63  N         -2.4240  -18.9260   22.8860 N.3    48  MET48      -0.1245
     64  CA        -2.4850  -18.9700   21.4320 C.3    48  MET48       0.1570
     65  C         -1.8980  -20.2860   20.9310 C.2    48  MET48       0.2261
     66  O         -0.7480  -20.6140   21.2100 O.2    48  MET48      -0.2867
     67  CB        -1.7110  -17.7990   20.8410 C.3    48  MET48       0.0387
     68  CG        -1.9630  -17.5680   19.3610 C.3    48  MET48       0.0595
     69  SD        -0.7070  -16.5230   18.5940 S.3    48  MET48      -0.1393
     70  CE        -1.2630  -14.9250   19.1030 C.3    48  MET48       0.0692
     71  N         -7.1410  -19.0860   19.5780 N.3    61  SER61      -0.1202
     72  CA        -6.9080  -18.2710   20.7520 C.3    61  SER61       0.2020
     73  C         -7.9610  -18.6330   21.7870 C.2    61  SER61       0.2619
     74  O         -9.1310  -18.8160   21.4500 O.2    61  SER61      -0.2717
     75  CB        -6.9440  -16.7910   20.4060 C.3    61  SER61       0.2103
     76  OG        -6.5950  -16.0240   21.5390 O.3    61  SER61      -0.2182
     77  N         -7.5430  -18.7500   23.0440 N.am   62  GLU62      -0.1965
     78  CA        -8.4230  -19.2680   24.0930 C.3    62  GLU62       0.1733
     79  C         -8.2990  -18.4720   25.3740 C.2    62  GLU62       0.2617
     80  O         -7.2030  -18.2810   25.8850 O.2    62  GLU62      -0.2715
     81  CB        -8.1100  -20.7360   24.3780 C.3    62  GLU62       0.0429
     82  CG        -8.1030  -21.6160   23.1380 C.3    62  GLU62       0.1163
     83  CD        -8.2940  -23.0960   23.4610 C.2    62  GLU62       0.3649
     84  OE1       -7.7900  -23.5680   24.5210 O.co2  62  GLU62      -0.2457
     85  OE2       -8.9450  -23.7890   22.6410 O.co2  62  GLU62      -0.2457
     86  N         -9.4330  -18.0050   25.8810 N.am   63  SER63      -0.1950
     87  CA        -9.5000  -17.3430   27.1820 C.3    63  SER63       0.1924
     88  C        -10.9400  -17.2940   27.6660 C.2    63  SER63       0.2314
     89  O        -11.8450  -17.7950   26.9880 O.2    63  SER63      -0.2863
     90  CB        -8.9520  -15.9200   27.0900 C.3    63  SER63       0.2116
     91  OG        -9.8620  -15.0760   26.4000 O.3    63  SER63      -0.2180
     92  N        -12.5570  -14.4970   27.8910 N.3    65  PHE65      -0.1227
     93  CA       -13.1980  -13.5330   27.0000 C.3    65  PHE65       0.1736
     94  C        -13.8140  -14.2180   25.7840 C.2    65  PHE65       0.2595
     95  O        -15.0110  -14.1090   25.5670 O.2    65  PHE65      -0.2718
     96  CB       -12.2170  -12.4530   26.5280 C.3    65  PHE65       0.0547
     97  CG       -12.7800  -11.5660   25.4450 C.ar   65  PHE65      -0.0202
     98  CD1      -13.9870  -10.9060   25.6320 C.ar   65  PHE65      -0.0042
     99  CD2      -12.1270  -11.4170   24.2270 C.ar   65  PHE65      -0.0042
    100  CE1      -14.5250  -10.0950   24.6270 C.ar   65  PHE65      -0.0003
    101  CE2      -12.6580  -10.5990   23.2270 C.ar   65  PHE65      -0.0003
    102  CZ       -13.8570   -9.9470   23.4280 C.ar   65  PHE65      -0.0000
    103  N        -12.9950  -14.8870   24.9790 N.am   66  LYS66      -0.1980
    104  CA       -13.5140  -15.6940   23.8700 C.3    66  LYS66       0.1596
    105  C        -12.5670  -16.7830   23.3740 C.2    66  LYS66       0.2287
    106  O        -11.3630  -16.6620   23.4920 O.2    66  LYS66      -0.2864
    107  CB       -13.9530  -14.8180   22.6820 C.3    66  LYS66       0.0298
    108  CG       -15.4720  -14.8920   22.4440 C.3    66  LYS66       0.0038
    109  CD       -15.9100  -14.5180   21.0280 C.3    66  LYS66       0.0206
    110  CE       -17.4350  -14.2880   20.9680 C.3    66  LYS66       0.1093
    111  NZ       -18.1670  -15.3690   20.2200 N.3    66  LYS66      -0.1314
    112  N        -11.6410  -18.4000   19.8560 N.3    68  THR68      -0.1218
    113  CA       -11.7330  -18.3170   18.3940 C.3    68  THR68       0.1862
    114  C        -10.7520  -19.2540   17.7350 C.2    68  THR68       0.2287
    115  O         -9.8390  -19.7990   18.3670 O.2    68  THR68      -0.2866
    116  CB       -11.4060  -16.9150   17.8890 C.3    68  THR68       0.1770
    117  OG1      -10.0540  -16.5870   18.2450 O.3    68  THR68      -0.2211
    118  CG2      -12.2660  -15.8590   18.5750 C.3    68  THR68       0.0375
    119  N        -14.0830  -11.8110   13.7440 N.3    82  THR82      -0.1203
    120  CA       -13.1470  -11.5530   14.8480 C.3    82  THR82       0.1994
    121  C        -13.8030  -11.7300   16.2200 C.2    82  THR82       0.2618
    122  O        -15.0150  -11.8520   16.3370 O.2    82  THR82      -0.2717
    123  CB       -12.5460  -10.1210   14.7870 C.3    82  THR82       0.1784
    124  OG1      -13.5850   -9.1520   14.9850 O.3    82  THR82      -0.2211
    125  CG2      -11.9490   -9.7980   13.4150 C.3    82  THR82       0.0376
    126  N        -12.9640  -11.7100   17.2480 N.am   83  ALA83      -0.1965
    127  CA       -13.3890  -11.8820   18.6360 C.3    83  ALA83       0.1728
    128  C        -14.4050  -10.8400   19.1020 C.2    83  ALA83       0.2616
    129  O        -15.2390  -11.1250   19.9580 O.2    83  ALA83      -0.2715
    130  CB       -12.1750  -11.8580   19.5280 C.3    83  ALA83       0.0334
    131  N        -14.3340   -9.6530   18.5000 N.am   84  ASP84      -0.1971
    132  CA       -15.1720   -8.5060   18.8180 C.3    84  ASP84       0.1709
    133  C        -16.2870   -8.2940   17.7700 C.2    84  ASP84       0.2293
    134  O        -16.9290   -7.2430   17.7210 O.2    84  ASP84      -0.2864
    135  CB       -14.3020   -7.2530   18.9370 C.3    84  ASP84       0.1436
    136  CG       -13.4850   -6.9670   17.6740 C.2    84  ASP84       0.3671
    137  OD1      -12.6870   -7.8390   17.2510 O.co2  84  ASP84      -0.2456
    138  OD2      -13.5720   -5.8850   17.0460 O.co2  84  ASP84      -0.2456
    139  N        -16.4480   -8.0450   14.3680 N.3    86  ARG86      -0.1245
    140  CA       -16.2330   -7.5820   13.0050 C.3    86  ARG86       0.1563
    141  C        -16.2400   -8.7830   12.0450 C.2    86  ARG86       0.2260
    142  O        -15.7030   -9.8340   12.3480 O.2    86  ARG86      -0.2867
    143  CB       -14.9090   -6.8220   12.8860 C.3    86  ARG86       0.0307
    144  CG       -14.9620   -5.3980   13.4410 C.3    86  ARG86       0.0489
    145  CD       -13.6080   -4.7340   13.5210 C.3    86  ARG86       0.2205
    146  NE       -12.7360   -5.4860   14.4110 N.pl3  86  ARG86      -0.0865
    147  CZ       -11.5100   -5.9010   14.1170 C.cat  86  ARG86       0.5346
    148  NH1      -10.9350   -5.6700   12.9310 N.pl3  86  ARG86       0.1354
    149  NH2      -10.8550   -6.5970   15.0260 N.pl3  86  ARG86       0.1354
    150  N         -6.3620   -7.3760    7.9880 N.3   103  GLN103     -0.1245
    151  CA        -7.8220   -7.4700    7.9990 C.3   103  GLN103      0.1566
    152  C         -8.4540   -6.2180    7.4210 C.2   103  GLN103      0.2260
    153  O         -8.1240   -5.1200    7.8220 O.2   103  GLN103     -0.2867
    154  CB        -8.3680   -7.6730    9.3990 C.3   103  GLN103      0.0367
    155  CG        -7.7760   -8.7890   10.1600 C.3   103  GLN103      0.0905
    156  CD        -8.2930   -8.7990   11.5760 C.2   103  GLN103      0.2608
    157  OE1       -8.5240   -7.7440   12.1490 O.2   103  GLN103     -0.2717
    158  NE2       -8.5010   -9.9800   12.1330 N.am  103  GLN103     -0.0878
    159  N         -1.8770   -7.3640   11.7510 N.3   112  ILE112     -0.1245
    160  CA        -1.3590   -8.1330   12.8630 C.3   112  ILE112      0.1561
    161  C         -0.1370   -8.8690   12.3590 C.2   112  ILE112      0.2260
    162  O         -0.2290   -9.7200   11.4940 O.2   112  ILE112     -0.2867
    163  CB        -2.4310   -9.1250   13.3490 C.3   112  ILE112      0.0252
    164  CG1       -3.6610   -8.3650   13.8250 C.3   112  ILE112      0.0019
    165  CG2       -1.9040  -10.0030   14.4530 C.3   112  ILE112      0.0019
    166  CD1       -4.9190   -8.8650   13.2670 C.3   112  ILE112      0.0001
    167  N          2.8720  -11.3600   13.4490 N.3   114  ARG114     -0.1245
    168  CA         3.2780  -12.3430   14.4590 C.3   114  ARG114      0.1563
    169  C          4.6890  -12.7670   14.1380 C.2   114  ARG114      0.2260
    170  O          4.9280  -13.3380   13.0880 O.2   114  ARG114     -0.2867
    171  CB         2.3670  -13.5730   14.4290 C.3   114  ARG114      0.0307
    172  CG         0.9610  -13.3420   14.9600 C.3   114  ARG114      0.0489
    173  CD         0.0580  -14.5430   14.8120 C.3   114  ARG114      0.2205
    174  NE        -1.2890  -14.3360   15.3670 N.pl3 114  ARG114     -0.0865
    175  CZ        -2.3600  -13.9410   14.6740 C.cat 114  ARG114      0.5346
    176  NH1       -2.2950  -13.6680   13.3710 N.pl3 114  ARG114      0.1354
    177  NH2       -3.5200  -13.8210   15.2950 N.pl3 114  ARG114      0.1354
    178  N          3.4870  -10.3860   18.9350 N.3   123  VAL123     -0.1245
    179  CA         2.3690   -9.9790   18.0890 C.3   123  VAL123      0.1561
    180  C          2.2560   -8.4520   18.1120 C.2   123  VAL123      0.2260
    181  O          2.0420   -7.8600   19.1660 O.2   123  VAL123     -0.2867
    182  CB         1.0510  -10.6130   18.5950 C.3   123  VAL123      0.0252
    183  CG1       -0.1100  -10.3000   17.6500 C.3   123  VAL123      0.0019
    184  CG2        1.2170  -12.1330   18.7900 C.3   123  VAL123      0.0019
    185  N          0.1180   -5.2840   16.5350 N.3   125  CYS125     -0.1235
    186  CA        -1.1220   -4.9340   15.8590 C.3   125  CYS125      0.1677
    187  C         -1.1490   -3.4350   15.5820 C.2   125  CYS125      0.2270
    188  O         -0.9810   -2.6440   16.5120 O.2   125  CYS125     -0.2867
    189  CB        -2.3290   -5.3040   16.7310 C.3   125  CYS125      0.0956
    190  SG        -2.4110   -7.0130   17.3090 S.3   125  CYS125     -0.0801
    191  N          2.0590   -7.5020   22.0060 N.3   134  ARG134     -0.1245
    192  CA         1.7530   -8.5640   22.9440 C.3   134  ARG134      0.1563
    193  C          2.7650   -9.7000   22.8150 C.2   134  ARG134      0.2260
    194  O          2.9990  -10.2280   21.7380 O.2   134  ARG134     -0.2867
    195  CB         0.3140   -9.0350   22.7390 C.3   134  ARG134      0.0307
    196  CG        -0.6710   -8.0760   23.3900 C.3   134  ARG134      0.0489
    197  CD        -2.0620   -8.1730   22.8740 C.3   134  ARG134      0.2205
    198  NE        -2.7740   -9.2750   23.5180 N.pl3 134  ARG134     -0.0865
    199  CZ        -3.4420   -9.1960   24.6640 C.cat 134  ARG134      0.5346
    200  NH1       -3.5060   -8.0650   25.3590 N.pl3 134  ARG134      0.1354
    201  NH2       -4.0460  -10.2800   25.1300 N.pl3 134  ARG134      0.1354
    202  N          4.3300  -13.3840   23.8540 N.3   136  TYR136     -0.1241
    203  CA         3.9560  -14.7350   24.2400 C.3   136  TYR136      0.1605
    204  C          5.2000  -15.5790   24.4240 C.2   136  TYR136      0.2264
    205  O          6.2150  -15.3610   23.7580 O.2   136  TYR136     -0.2867
    206  CB         3.0960  -15.3920   23.1430 C.3   136  TYR136      0.0534
    207  CG         1.7210  -14.8160   23.0090 C.ar  136  TYR136     -0.0201
    208  CD1        1.5060  -13.6510   22.2930 C.ar  136  TYR136     -0.0009
    209  CD2        0.6220  -15.4430   23.5990 C.ar  136  TYR136     -0.0009
    210  CE1        0.2420  -13.1150   22.1790 C.ar  136  TYR136      0.0417
    211  CE2       -0.6560  -14.9110   23.4840 C.ar  136  TYR136      0.0417
    212  CZ        -0.8340  -13.7510   22.7780 C.ar  136  TYR136      0.1957
    213  OH        -2.1000  -13.2170   22.6600 O.3   136  TYR136     -0.2866
@<TRIPOS>BOND
     1   152   153    2
     2   152   151    1
     3   150   151    1
     4   151   154    1
     5   154   155    1
     6   155   156    1
     7   162   161    2
     8   156   158   am
     9   156   157    2
    10   159   160    1
    11   141   142    2
    12   141   140    1
    13   161   160    1
    14   160   163    1
    15   143   140    1
    16   143   144    1
    17   148   147    1
    18   140   139    1
    19   170   169    2
    20   166   164    1
    21   163   164    1
    22   163   165    1
    23   176   175    1
    24   125   123    1
    25   144   145    1
    26   167   168    1
    27   145   146    1
    28   119   120    1
    29   147   146    2
    30   147   149    1
    31   169   168    1
    32   171   168    1
    33   171   172    1
    34   175   177    1
    35   175   174    2
    36   123   120    1
    37   123   124    1
    38   173   172    1
    39   173   174    1
    40   120   121    1
    41    35    34    2
    42    23    22    1
    43   187   186    1
    44   187   188    2
    45    38    36    1
    46    37    36    1
    47    33    34    1
    48    33    36    1
    49    33    32    1
    50   186   185    1
    51   186   189    1
    52    20    22   ar
    53    20    18   ar
    54   121   122    2
    55   121   126   am
    56    22    21   ar
    57   189   190    1
    58   138   136   ar
    59    18    17   ar
    60   126   127    1
    61   137   136   ar
    62    21    19   ar
    63   183   182    1
    64   136   135    1
    65   134   133    2
    66   114   115    2
    67   114   113    1
    68   133   132    1
    69   116   117    1
    70   116   113    1
    71   116   118    1
    72   179   180    1
    73   179   182    1
    74   179   178    1
    75   180   181    2
    76   113   112    1
    77    15    14    2
    78   131   132    1
    79   131   128   am
    80    17    19   ar
    81    17    16    1
    82    69    70    1
    83    69    68    1
    84   182   184    1
    85   127   128    1
    86   127   130    1
    87   132   135    1
    88   128   129    2
    89    39    40    1
    90    68    67    1
    91    14    13    1
    92    14    24   am
    93    71    72    1
    94    27    26    2
    95    16    13    1
    96    13    12    1
    97    45    43    1
    98    40    43    1
    99    40    41    1
   100   111   110    1
   101    26    25    1
   102    75    72    1
   103    75    76    1
   104    25    24    1
   105    25    28    1
   106    72    73    1
   107    67    64    1
   108    43    44    1
   109    65    66    2
   110    65    64    1
   111   110   109    1
   112   109   108    1
   113    41    42    2
   114    64    63    1
   115    74    73    2
   116   194   193    2
   117    28    29    1
   118    73    77   am
   119    29    30    1
   120     9     7   ar
   121     9    11   ar
   122   191   192    1
   123   210   208   ar
   124   210   212   ar
   125   208   207   ar
   126     7     6   ar
   127   108   107    1
   128    85    83   ar
   129   213   212    1
   130   107   104    1
   131   195   192    1
   132   195   196    1
   133    11    10   ar
   134   212   211   ar
   135   193   192    1
   136   197   196    1
   137   197   198    1
   138    30    31    1
   139     4     3    2
   140   207   206    1
   141   207   209   ar
   142    77    78    1
   143    82    83    1
   144    82    81    1
   145   206   203    1
   146   101   102   ar
   147   101    99   ar
   148   105   106    2
   149   105   104    1
   150   102   100   ar
   151    83    84   ar
   152   211   209   ar
   153   198   199    2
   154     2     3    1
   155     2     1    1
   156     2     5    1
   157   205   204    2
   158     6     5    1
   159     6     8   ar
   160   202   203    1
   161   104   103    1
   162    78    81    1
   163    78    79    1
   164    10     8   ar
   165    99    97   ar
   166   203   204    1
   167   100    98   ar
   168   199   201    1
   169   199   200    1
   170    61    60    1
   171    61    62    1
   172   103    94   am
   173    60    57    1
   174    50    47    1
   175    79    86   am
   176    79    80    2
   177    97    98   ar
   178    97    96    1
   179    95    94    2
   180    94    93    1
   181    86    87    1
   182    59    58    2
   183    58    57    1
   184    62    56    1
   185    57    56    1
   186    91    90    1
   187    96    93    1
   188    47    48    1
   189    47    46    1
   190    49    48    2
   191    89    88    2
   192    93    92    1
   193    90    87    1
   194    87    88    1
   195    55    52    1
   196    53    52    1
   197    53    54    2
   198    52    51    1
