@<TRIPOS>MOLECULE
tmp/2qmcD00.pdb
 118 110 0 0 0
SMALL
GASTEIGER

@<TRIPOS>ATOM
      1  N         15.6920    4.2150  -15.7780 N.3     1  ALA1       -0.1245
      2  CA        14.4070    4.7180  -15.2040 C.3     1  ALA1        0.1562
      3  C         14.5510    5.3500  -13.8400 C.2     1  ALA1        0.2260
      4  O         15.5210    5.1360  -13.1290 O.2     1  ALA1       -0.2867
      5  CB        13.3350    3.5890  -15.1280 C.3     1  ALA1        0.0290
      6  N         12.0000    6.8720  -18.3000 N.3    19  THR19      -0.1218
      7  CA        13.3120    6.2910  -18.4790 C.3    19  THR19       0.1862
      8  C         13.8970    6.6360  -19.8350 C.2    19  THR19       0.2287
      9  O         13.1550    6.9190  -20.7680 O.2    19  THR19      -0.2866
     10  CB        13.2200    4.7300  -18.3390 C.3    19  THR19       0.1770
     11  OG1       14.5240    4.1550  -18.3270 O.3    19  THR19      -0.2211
     12  CG2       12.4120    4.0970  -19.4470 C.3    19  THR19       0.0375
     13  N         16.1160    4.2000  -20.4910 N.3    21  ASN21      -0.1225
     14  CA        16.5460    2.7950  -20.3750 C.3    21  ASN21       0.1785
     15  C         17.8370    2.6720  -19.5620 C.2    21  ASN21       0.2597
     16  O         17.7820    2.8350  -18.3500 O.2    21  ASN21      -0.2718
     17  CB        16.6200    2.0420  -21.7180 C.3    21  ASN21       0.1169
     18  CG        16.8710    0.5550  -21.5360 C.2    21  ASN21       0.2627
     19  OD1       16.6210   -0.0060  -20.4690 O.2    21  ASN21      -0.2716
     20  ND2       17.3920   -0.0830  -22.5700 N.am   21  ASN21      -0.0877
     21  N         18.9770    2.3970  -20.2100 N.am   22  ALA22      -0.1966
     22  CA        20.2530    2.3080  -19.5240 C.3    22  ALA22       0.1728
     23  C         20.5910    3.6260  -18.8320 C.2    22  ALA22       0.2616
     24  O         19.9820    4.6690  -19.1120 O.2    22  ALA22      -0.2715
     25  CB        21.3750    1.9380  -20.5220 C.3    22  ALA22       0.0334
     26  N         21.5720    3.5830  -17.9420 N.am   23  SER23      -0.1950
     27  CA        22.0990    4.7960  -17.3460 C.3    23  SER23       0.1924
     28  C         22.6490    5.6990  -18.4420 C.2    23  SER23       0.2314
     29  O         23.5720    5.3200  -19.1790 O.2    23  SER23      -0.2863
     30  CB        23.2160    4.4390  -16.3720 C.3    23  SER23       0.2116
     31  OG        23.6950    5.5930  -15.7240 O.3    23  SER23      -0.2180
     32  N         15.9190    2.5730  -25.7170 N.3    40  GLU40      -0.1245
     33  CA        14.7410    1.7500  -25.4740 C.3    40  GLU40       0.1567
     34  C         14.5650    0.6050  -26.4840 C.2    40  GLU40       0.2260
     35  O         13.8330   -0.3400  -26.2200 O.2    40  GLU40      -0.2867
     36  CB        13.4740    2.6130  -25.4210 C.3    40  GLU40       0.0388
     37  CG        12.5670    2.2560  -24.2180 C.3    40  GLU40       0.1160
     38  CD        13.1560    2.7110  -22.8920 C.2    40  GLU40       0.3649
     39  OE1       13.4450    3.9350  -22.7450 O.co2  40  GLU40      -0.2457
     40  OE2       13.3380    1.8440  -22.0060 O.co2  40  GLU40      -0.2457
     41  N         14.8580   -2.9500  -25.3230 N.3    43  ASP43      -0.1239
     42  CA        13.7510   -3.5990  -24.6180 C.3    43  ASP43       0.1674
     43  C         12.8930   -4.4840  -25.5120 C.2    43  ASP43       0.2266
     44  O         12.0670   -5.2460  -25.0180 O.2    43  ASP43      -0.2867
     45  CB        12.9020   -2.5550  -23.9020 C.3    43  ASP43       0.1410
     46  CG        13.4440   -2.1940  -22.5220 C.2    43  ASP43       0.3668
     47  OD1       14.5220   -2.7130  -22.1020 O.co2  43  ASP43      -0.2456
     48  OD2       12.7490   -1.3970  -21.8510 O.co2  43  ASP43      -0.2456
     49  N         18.9290   -6.7140  -19.3270 N.3    54  TYR54      -0.1241
     50  CA        18.4440   -7.2070  -18.0290 C.3    54  TYR54       0.1605
     51  C         18.2770   -8.7270  -17.9770 C.2    54  TYR54       0.2264
     52  O         17.6740   -9.2630  -17.0300 O.2    54  TYR54      -0.2867
     53  CB        17.1300   -6.4860  -17.6130 C.3    54  TYR54       0.0534
     54  CG        17.2800   -4.9950  -17.7600 C.ar   54  TYR54      -0.0201
     55  CD1       18.0940   -4.2830  -16.8700 C.ar   54  TYR54      -0.0009
     56  CD2       16.7030   -4.3020  -18.8390 C.ar   54  TYR54      -0.0009
     57  CE1       18.3060   -2.9100  -17.0270 C.ar   54  TYR54       0.0417
     58  CE2       16.9230   -2.9290  -18.9990 C.ar   54  TYR54       0.0417
     59  CZ        17.7390   -2.2570  -18.0980 C.ar   54  TYR54       0.1957
     60  OH        17.9780   -0.9100  -18.2760 O.3    54  TYR54      -0.2866
     61  N          7.9660   -3.1740  -21.6710 N.3    72  SER72      -0.1202
     62  CA         8.6050   -2.6260  -20.4650 C.3    72  SER72       0.2020
     63  C          8.3440   -3.5310  -19.2590 C.2    72  SER72       0.2619
     64  O          7.4890   -4.4230  -19.3070 O.2    72  SER72      -0.2717
     65  CB         8.0420   -1.2160  -20.2000 C.3    72  SER72       0.2103
     66  OG         8.6550   -0.5720  -19.0880 O.3    72  SER72      -0.2182
     67  N          9.1110   -3.3200  -18.1980 N.am   73  SER73      -0.1937
     68  CA         8.7730   -3.9020  -16.9060 C.3    73  SER73       0.2055
     69  C          8.3290   -2.8240  -15.9330 C.2    73  SER73       0.2642
     70  O          8.0770   -3.1260  -14.7530 O.2    73  SER73      -0.2714
     71  CB         9.9930   -4.6230  -16.3010 C.3    73  SER73       0.2130
     72  OG        10.5520   -5.5570  -17.2050 O.3    73  SER73      -0.2179
     73  N          8.2270   -1.5720  -16.3900 N.am   74  MET74      -0.1976
     74  CA         7.8870   -0.5010  -15.4440 C.3    74  MET74       0.1605
     75  C          6.5220   -0.7170  -14.8130 C.2    74  MET74       0.2287
     76  O          5.5610   -1.0770  -15.4870 O.2    74  MET74      -0.2864
     77  CB         8.0420    0.9010  -16.0560 C.3    74  MET74       0.0413
     78  CG         9.5110    1.2430  -16.2730 C.3    74  MET74       0.0598
     79  SD         9.8200    2.9180  -16.9580 S.3    74  MET74      -0.1393
     80  CE         9.2620    2.7100  -18.6430 C.3    74  MET74       0.0692
     81  N         12.5910    2.0010  -10.4980 N.3    92  PRO92      -0.2102
     82  CA        13.3780    1.5400  -11.6180 C.3    92  PRO92       0.1504
     83  C         14.0200    0.1870  -11.3020 C.2    92  PRO92       0.2576
     84  O         13.8050   -0.3830  -10.2290 O.2    92  PRO92      -0.2718
     85  CB        14.4510    2.6140  -11.7330 C.3    92  PRO92       0.0282
     86  CG        14.6940    3.0320  -10.3250 C.3    92  PRO92       0.0208
     87  CD        13.3340    2.9750   -9.6740 C.3    92  PRO92       0.0893
     88  N         14.7880   -0.3230  -12.2600 N.am   93  GLY93      -0.1943
     89  CA        15.4470   -1.6120  -12.0760 C.3    93  GLY93       0.2014
     90  C         15.3580   -2.6210  -13.2020 C.2    93  GLY93       0.2639
     91  O         15.7400   -3.7820  -13.0020 O.2    93  GLY93      -0.2714
     92  N         14.8490   -2.2130  -14.3730 N.am   94  GLY94      -0.1954
     93  CA        14.7040   -3.1400  -15.5020 C.3    94  GLY94       0.1869
     94  C         13.8590   -4.3290  -15.0830 C.2    94  GLY94       0.2309
     95  O         12.7790   -4.1620  -14.4970 O.2    94  GLY94      -0.2863
     96  N         14.0690   -6.1010  -12.5790 N.3    96  ARG96      -0.1231
     97  CA        13.8590   -6.1390  -11.1210 C.3    96  ARG96       0.1694
     98  C         12.7210   -5.2570  -10.6550 C.2    96  ARG96       0.2591
     99  O         12.3420   -5.3080   -9.4800 O.2    96  ARG96      -0.2718
    100  CB        15.1350   -5.7570  -10.3750 C.3    96  ARG96       0.0321
    101  CG        16.2230   -6.8340  -10.4170 C.3    96  ARG96       0.0489
    102  CD        17.1550   -6.6800  -11.6210 C.3    96  ARG96       0.2205
    103  NE        17.8160   -5.3770  -11.6290 N.pl3  96  ARG96      -0.0865
    104  CZ        18.7050   -4.9800  -12.5390 C.cat  96  ARG96       0.5346
    105  NH1       19.0590   -5.7730  -13.5400 N.pl3  96  ARG96       0.1354
    106  NH2       19.2310   -3.7620  -12.4380 N.pl3  96  ARG96       0.1354
    107  N         12.1850   -4.4470  -11.5560 N.am   97  ILE97      -0.1980
    108  CA        11.1310   -3.5210  -11.1560 C.3    97  ILE97       0.1595
    109  C          9.9470   -4.2890  -10.5620 C.2    97  ILE97       0.2287
    110  O          9.4500   -3.9340   -9.4880 O.2    97  ILE97      -0.2864
    111  CB        10.6340   -2.6570  -12.3370 C.3    97  ILE97       0.0276
    112  CG1       11.6900   -1.6480  -12.7520 C.3    97  ILE97       0.0022
    113  CG2        9.3450   -1.9040  -11.9520 C.3    97  ILE97       0.0022
    114  CD1       11.3600   -0.9330  -14.0650 C.3    97  ILE97       0.0001
    115  N         16.7770   -1.4170   -7.1010 N.3   162  GLY162     -0.1225
    116  CA        15.6510   -0.4960   -7.1270 C.3   162  GLY162      0.1811
    117  C         15.8920    0.8200   -6.4340 C.2   162  GLY162      0.2280
    118  O         16.9660    1.0730   -5.8520 O.2   162  GLY162     -0.2866
@<TRIPOS>BOND
     1    34    35    2
     2    34    33    1
     3    32    33    1
     4    43    44    2
     5    43    42    1
     6    33    36    1
     7    36    37    1
     8    41    42    1
     9    42    45    1
    10    37    38    1
    11    45    46    1
    12    38    39   ar
    13    38    40   ar
    14    20    18   am
    15    46    47   ar
    16    46    48   ar
    17    17    18    1
    18    17    14    1
    19    61    62    1
    20    18    19    2
    21     9     8    2
    22    25    22    1
    23    13    14    1
    24    62    65    1
    25    62    63    1
    26    14    15    1
    27    21    15   am
    28    21    22    1
    29    65    66    1
    30     8     7    1
    31    15    16    2
    32    22    23    1
    33    12    10    1
    34    49    50    1
    35    64    63    2
    36    63    67   am
    37    29    28    2
    38    24    23    2
    39    58    56   ar
    40    58    59   ar
    41    56    54   ar
    42    23    26   am
    43    80    79    1
    44     7    10    1
    45     7     6    1
    46    28    27    1
    47    10    11    1
    48    60    59    1
    49    67    68    1
    50    59    57   ar
    51    50    51    1
    52    50    53    1
    53    51    52    2
    54    26    27    1
    55    54    53    1
    56    54    55   ar
    57    27    30    1
    58    72    71    1
    59    57    55   ar
    60    79    78    1
    61    68    71    1
    62    68    69    1
    63    73    69   am
    64    73    74    1
    65    30    31    1
    66    78    77    1
    67    77    74    1
    68    69    70    2
    69     1     2    1
    70    93    94    1
    71    93    92    1
    72    76    75    2
    73    74    75    1
    74     2     5    1
    75     2     3    1
    76    94    95    2
    77    92    90   am
    78   114   112    1
    79     3     4    2
    80   105   104    1
    81    90    91    2
    82    90    89    1
    83   112   111    1
    84    96    97    1
    85   104   106    1
    86   104   103    2
    87   111   113    1
    88   111   108    1
    89    88    89    1
    90    88    83   am
    91    85    82    1
    92    85    86    1
    93   103   102    1
    94   102   101    1
    95    82    83    1
    96    82    81    1
    97   107   108    1
    98   107    98   am
    99    83    84    2
   100   108   109    1
   101    97    98    1
   102    97   100    1
   103    98    99    2
   104   109   110    2
   105    81    87    1
   106   101   100    1
   107    86    87    1
   108   116   115    1
   109   116   117    1
   110   117   118    2
