@<TRIPOS>MOLECULE
tmp/2qmjA00.pdb
 208 201 0 0 0
SMALL
GASTEIGER

@<TRIPOS>ATOM
      1  N        -18.1170    2.5570   -6.4140 N.3   197  ASP197     -0.1239
      2  CA       -18.6190    1.2040   -6.4130 C.3   197  ASP197      0.1674
      3  C        -19.2440    0.9050   -5.0610 C.2   197  ASP197      0.2266
      4  O        -18.5320    0.6160   -4.0840 O.2   197  ASP197     -0.2867
      5  CB       -17.4430    0.2440   -6.6970 C.3   197  ASP197      0.1410
      6  CG       -17.8620   -1.2290   -6.7600 C.2   197  ASP197      0.3668
      7  OD1      -19.0710   -1.5620   -6.6070 O.co2 197  ASP197     -0.2456
      8  OD2      -16.9380   -2.0480   -6.9960 O.co2 197  ASP197     -0.2456
      9  N        -23.2860   -0.4300   -3.1050 N.3   199  THR199     -0.1218
     10  CA       -24.5690   -1.0410   -3.3270 C.3   199  THR199      0.1862
     11  C        -25.6670    0.0080   -3.4130 C.2   199  THR199      0.2287
     12  O        -25.8080    0.8340   -2.5220 O.2   199  THR199     -0.2866
     13  CB       -24.8970   -2.0250   -2.2090 C.3   199  THR199      0.1770
     14  OG1      -23.8070   -2.9310   -2.0590 O.3   199  THR199     -0.2211
     15  CG2      -26.1420   -2.8060   -2.5510 C.3   199  THR199      0.0375
     16  N        -28.6370    0.8260   -2.3490 N.3   201  ASN201     -0.1240
     17  CA       -29.5840    0.3580   -1.3230 C.3   201  ASN201      0.1653
     18  C        -30.3210    1.5340   -0.6860 C.2   201  ASN201      0.2266
     19  O        -30.3230    2.6520   -1.2230 O.2   201  ASN201     -0.2867
     20  CB       -28.8210   -0.4890   -0.2820 C.3   201  ASN201      0.1155
     21  CG       -27.6700    0.2720    0.3370 C.2   201  ASN201      0.2627
     22  OD1      -27.7290    1.4870    0.4250 O.2   201  ASN201     -0.2716
     23  ND2      -26.6170   -0.4290    0.7610 N.am  201  ASN201     -0.0877
     24  N        -23.3410  -13.4990  -13.5000 N.3   293  TYR293     -0.1241
     25  CA       -21.9850  -13.6110  -13.0160 C.3   293  TYR293      0.1605
     26  C        -21.8030  -15.0940  -12.6590 C.2   293  TYR293      0.2264
     27  O        -22.5840  -15.6780  -11.8890 O.2   293  TYR293     -0.2867
     28  CB       -21.8350  -12.7140  -11.7930 C.3   293  TYR293      0.0534
     29  CG       -20.4510  -12.6820  -11.1500 C.ar  293  TYR293     -0.0201
     30  CD1      -20.3010  -12.2590   -9.8270 C.ar  293  TYR293     -0.0009
     31  CD2      -19.3330  -13.0560  -11.8440 C.ar  293  TYR293     -0.0009
     32  CE1      -19.0460  -12.2060   -9.2140 C.ar  293  TYR293      0.0417
     33  CE2      -18.0530  -13.0100  -11.2340 C.ar  293  TYR293      0.0417
     34  CZ       -17.9350  -12.5820   -9.9180 C.ar  293  TYR293      0.1957
     35  OH       -16.6950  -12.5380   -9.3000 O.3   293  TYR293     -0.2866
     36  N        -19.9750  -12.6670  -18.6240 N.3   321  ASP321     -0.1225
     37  CA       -19.3380  -11.9570  -17.5050 C.3   321  ASP321      0.1805
     38  C        -17.9020  -12.5130  -17.3480 C.2   321  ASP321      0.2597
     39  O        -17.4720  -13.3100  -18.1730 O.2   321  ASP321     -0.2718
     40  CB       -20.1850  -12.1740  -16.2530 C.3   321  ASP321      0.1424
     41  CG       -20.0020  -11.0970  -15.2130 C.2   321  ASP321      0.3668
     42  OD1      -18.8900  -10.5320  -15.0950 O.co2 321  ASP321     -0.2456
     43  OD2      -20.9820  -10.8420  -14.4820 O.co2 321  ASP321     -0.2456
     44  N        -17.1790  -12.1290  -16.2960 N.am  322  ILE322     -0.1980
     45  CA       -15.7190  -12.4000  -16.2370 C.3   322  ILE322      0.1595
     46  C        -15.3370  -13.8670  -16.1510 C.2   322  ILE322      0.2287
     47  O        -14.1470  -14.1890  -16.3170 O.2   322  ILE322     -0.2864
     48  CB       -15.0000  -11.6310  -15.0690 C.3   322  ILE322      0.0276
     49  CG1      -15.5980  -12.0250  -13.6980 C.3   322  ILE322      0.0022
     50  CG2      -15.0530  -10.1290  -15.3270 C.3   322  ILE322      0.0022
     51  CD1      -14.9360  -11.3000  -12.4580 C.3   322  ILE322      0.0001
     52  N        -18.0930   -8.5050  -21.1380 N.3   358  ILE358     -0.1245
     53  CA       -17.7080   -7.5640  -20.1190 C.3   358  ILE358      0.1561
     54  C        -16.2170   -7.3650  -20.3470 C.2   358  ILE358      0.2260
     55  O        -15.5310   -8.3280  -20.6880 O.2   358  ILE358     -0.2867
     56  CB       -17.9950   -8.0900  -18.6790 C.3   358  ILE358      0.0252
     57  CG1      -17.9830   -6.9270  -17.6720 C.3   358  ILE358      0.0019
     58  CG2      -17.0100   -9.2280  -18.2380 C.3   358  ILE358      0.0019
     59  CD1      -18.5240   -7.2640  -16.2650 C.3   358  ILE358      0.0001
     60  N        -13.0510   -5.0180  -18.2860 N.3   360  ASP360     -0.1239
     61  CA       -12.7870   -4.2360  -17.0890 C.3   360  ASP360      0.1674
     62  C        -11.6420   -3.2820  -17.4510 C.2   360  ASP360      0.2266
     63  O        -10.9040   -3.5640  -18.3870 O.2   360  ASP360     -0.2867
     64  CB       -12.4230   -5.1590  -15.8960 C.3   360  ASP360      0.1410
     65  CG       -13.6170   -6.0160  -15.3990 C.2   360  ASP360      0.3668
     66  OD1      -14.7330   -5.4780  -15.2000 O.co2 360  ASP360     -0.2456
     67  OD2      -13.4200   -7.2310  -15.1710 O.co2 360  ASP360     -0.2456
     68  N        -10.0390   -7.8500  -10.2280 N.3   400  TRP400     -0.1241
     69  CA       -10.3610   -9.2660  -10.4190 C.3   400  TRP400      0.1605
     70  C         -9.1660  -10.1910  -10.6940 C.2   400  TRP400      0.2264
     71  O         -9.0860  -11.2680  -10.1090 O.2   400  TRP400     -0.2867
     72  CB       -11.4010   -9.4180  -11.5280 C.3   400  TRP400      0.0550
     73  CG       -12.7310   -8.7620  -11.1920 C.ar  400  TRP400      0.0003
     74  CD1      -13.3570   -7.7910  -11.9030 C.ar  400  TRP400      0.0946
     75  CD2      -13.5800   -9.0500  -10.0690 C.ar  400  TRP400      0.0152
     76  NE1      -14.5660   -7.4530  -11.3040 N.ar  400  TRP400     -0.2442
     77  CE2      -14.7290   -8.2180  -10.1810 C.ar  400  TRP400      0.0810
     78  CE3      -13.5000   -9.9470   -8.9940 C.ar  400  TRP400      0.0012
     79  CZ2      -15.7560   -8.2230   -9.2320 C.ar  400  TRP400      0.0191
     80  CZ3      -14.5220   -9.9620   -8.0530 C.ar  400  TRP400      0.0001
     81  CH2      -15.6510   -9.1070   -8.1850 C.ar  400  TRP400      0.0015
     82  N        -19.4910   -4.3910  -22.5370 N.3   435  TRP435     -0.1241
     83  CA       -20.0580   -4.0220  -21.2660 C.3   435  TRP435      0.1605
     84  C        -18.8620   -3.5960  -20.4340 C.2   435  TRP435      0.2264
     85  O        -18.0400   -4.4300  -20.0940 O.2   435  TRP435     -0.2867
     86  CB       -20.7840   -5.2410  -20.7190 C.3   435  TRP435      0.0550
     87  CG       -21.1260   -5.2240  -19.2940 C.ar  435  TRP435      0.0003
     88  CD1      -21.1690   -4.1380  -18.4600 C.ar  435  TRP435      0.0946
     89  CD2      -21.5140   -6.3520  -18.5150 C.ar  435  TRP435      0.0152
     90  NE1      -21.5500   -4.5300  -17.1930 N.ar  435  TRP435     -0.2442
     91  CE2      -21.7800   -5.8810  -17.1990 C.ar  435  TRP435      0.0810
     92  CE3      -21.6830   -7.7260  -18.7990 C.ar  435  TRP435      0.0012
     93  CZ2      -22.1900   -6.7340  -16.1650 C.ar  435  TRP435      0.0191
     94  CZ3      -22.0550   -8.5800  -17.7650 C.ar  435  TRP435      0.0001
     95  CH2      -22.2830   -8.0740  -16.4530 C.ar  435  TRP435      0.0015
     96  N        -17.3200   -2.1690  -17.0600 N.3   437  ASP437     -0.1225
     97  CA       -17.6860   -2.2810  -15.6700 C.3   437  ASP437      0.1805
     98  C        -16.5020   -1.8590  -14.7660 C.2   437  ASP437      0.2597
     99  O        -15.3910   -1.6770  -15.2580 O.2   437  ASP437     -0.2718
    100  CB       -18.0240   -3.7290  -15.4050 C.3   437  ASP437      0.1424
    101  CG       -18.6010   -3.9500  -14.0350 C.2   437  ASP437      0.3668
    102  OD1      -19.2810   -3.0280  -13.5160 O.co2 437  ASP437     -0.2456
    103  OD2      -18.3350   -5.0390  -13.4760 O.co2 437  ASP437     -0.2456
    104  N        -16.7660   -1.7090  -13.4650 N.am  438  MET438     -0.1979
    105  CA       -15.7200   -1.4140  -12.4620 C.3   438  MET438      0.1605
    106  C        -15.0050   -0.1080  -12.7950 C.2   438  MET438      0.2287
    107  O        -13.8380    0.0820  -12.4410 O.2   438  MET438     -0.2864
    108  CB       -14.7020   -2.5570  -12.4350 C.3   438  MET438      0.0413
    109  CG       -15.2700   -3.9380  -12.2280 C.3   438  MET438      0.0598
    110  SD       -16.1830   -4.0890  -10.6870 S.3   438  MET438     -0.1393
    111  CE       -14.7510   -4.1500   -9.5680 C.3   438  MET438      0.0692
    112  N         -9.8580   -2.7480   -5.3430 N.3   444  PHE444     -0.1241
    113  CA       -10.1180   -3.6160   -4.1950 C.3   444  PHE444      0.1605
    114  C         -9.2210   -3.2390   -3.0150 C.2   444  PHE444      0.2264
    115  O         -9.4210   -3.7290   -1.9100 O.2   444  PHE444     -0.2867
    116  CB        -9.9220   -5.1030   -4.5460 C.3   444  PHE444      0.0534
    117  CG       -10.9800   -5.6580   -5.4840 C.ar  444  PHE444     -0.0203
    118  CD1      -12.1450   -4.9380   -5.7570 C.ar  444  PHE444     -0.0042
    119  CD2      -10.8200   -6.9130   -6.0570 C.ar  444  PHE444     -0.0042
    120  CE1      -13.1170   -5.4450   -6.6090 C.ar  444  PHE444     -0.0003
    121  CE2      -11.8100   -7.4340   -6.9080 C.ar  444  PHE444     -0.0003
    122  CZ       -12.9480   -6.6930   -7.1800 C.ar  444  PHE444     -0.0000
    123  N        -21.0440    1.2490  -16.3300 N.3   520  ARG520     -0.1245
    124  CA       -21.4840    1.4370  -14.9700 C.3   520  ARG520      0.1563
    125  C        -21.3510    2.8960  -14.5590 C.2   520  ARG520      0.2260
    126  O        -22.3480    3.5340  -14.2430 O.2   520  ARG520     -0.2867
    127  CB       -20.7510    0.5030  -13.9760 C.3   520  ARG520      0.0307
    128  CG       -21.5770    0.3470  -12.6650 C.3   520  ARG520      0.0489
    129  CD       -21.1480   -0.8640  -11.8670 C.3   520  ARG520      0.2205
    130  NE       -19.8950   -0.5600  -11.2150 N.pl3 520  ARG520     -0.0865
    131  CZ       -19.2050   -1.3910  -10.4400 C.cat 520  ARG520      0.5346
    132  NH1      -19.6320   -2.6260  -10.2190 N.pl3 520  ARG520      0.1354
    133  NH2      -18.0540   -0.9710   -9.9090 N.pl3 520  ARG520      0.1354
    134  N        -26.6540    0.5240  -16.6310 N.3   533  TRP533     -0.1241
    135  CA       -27.5270   -0.2150  -15.7070 C.3   533  TRP533      0.1605
    136  C        -27.3340    0.2430  -14.2750 C.2   533  TRP533      0.2264
    137  O        -26.2580    0.7600  -13.8970 O.2   533  TRP533     -0.2867
    138  CB       -27.4640   -1.7640  -15.8340 C.3   533  TRP533      0.0550
    139  CG       -26.4010   -2.4290  -14.9940 C.ar  533  TRP533      0.0003
    140  CD1      -26.5830   -3.2610  -13.9100 C.ar  533  TRP533      0.0946
    141  CD2      -24.9930   -2.3280  -15.1950 C.ar  533  TRP533      0.0152
    142  NE1      -25.3360   -3.6770  -13.4320 N.ar  533  TRP533     -0.2442
    143  CE2      -24.3610   -3.1200  -14.2060 C.ar  533  TRP533      0.0810
    144  CE3      -24.2030   -1.6650  -16.1380 C.ar  533  TRP533      0.0012
    145  CZ2      -22.9740   -3.2480  -14.1150 C.ar  533  TRP533      0.0191
    146  CZ3      -22.8220   -1.7760  -16.0400 C.ar  533  TRP533      0.0001
    147  CH2      -22.2210   -2.5690  -15.0310 C.ar  533  TRP533      0.0015
    148  N        -25.4310   -3.1590   -8.8810 N.3   536  ASP536     -0.1239
    149  CA       -25.5830   -4.3700   -8.0470 C.3   536  ASP536      0.1674
    150  C        -26.7400   -4.3170   -7.0330 C.2   536  ASP536      0.2266
    151  O        -26.5370   -4.1920   -5.8200 O.2   536  ASP536     -0.2867
    152  CB       -24.2520   -4.6310   -7.3250 C.3   536  ASP536      0.1410
    153  CG       -23.0770   -4.7670   -8.2880 C.2   536  ASP536      0.3668
    154  OD1      -23.2670   -5.3030   -9.4150 O.co2 536  ASP536     -0.2456
    155  OD2      -21.9400   -4.3810   -7.9060 O.co2 536  ASP536     -0.2456
    156  N        -30.5340   -5.9070   -5.3450 N.3   538  THR538     -0.1218
    157  CA       -30.7630   -7.0560   -4.5050 C.3   538  THR538      0.1862
    158  C        -32.1580   -7.5460   -4.8360 C.2   538  THR538      0.2287
    159  O        -32.9910   -6.7340   -5.2570 O.2   538  THR538     -0.2866
    160  CB       -30.6210   -6.6280   -3.0160 C.3   538  THR538      0.1770
    161  OG1      -29.3450   -5.9750   -2.8680 O.3   538  THR538     -0.2211
    162  CG2      -30.6120   -7.8260   -2.0790 C.3   538  THR538      0.0375
    163  N        -29.7330   -8.6640   -8.6250 N.3   569  PHE569     -0.1227
    164  CA       -28.4030   -9.2040   -8.7210 C.3   569  PHE569      0.1736
    165  C        -28.0830  -10.1060   -7.5030 C.2   569  PHE569      0.2595
    166  O        -28.0190  -11.3240   -7.6470 O.2   569  PHE569     -0.2718
    167  CB       -27.4180   -8.0730   -8.8660 C.3   569  PHE569      0.0547
    168  CG       -26.0180   -8.5190   -9.0330 C.ar  569  PHE569     -0.0202
    169  CD1      -25.6080   -9.0960  -10.2280 C.ar  569  PHE569     -0.0042
    170  CD2      -25.0890   -8.3490   -7.9900 C.ar  569  PHE569     -0.0042
    171  CE1      -24.2950   -9.4970  -10.3920 C.ar  569  PHE569     -0.0003
    172  CE2      -23.7560   -8.7610   -8.1450 C.ar  569  PHE569     -0.0003
    173  CZ       -23.3600   -9.3270   -9.3580 C.ar  569  PHE569     -0.0000
    174  N        -27.8850   -9.5200   -6.3190 N.am  570  ALA570     -0.1966
    175  CA       -27.5830  -10.3020   -5.0960 C.3   570  ALA570      0.1728
    176  C        -28.8100  -11.0360   -4.5540 C.2   570  ALA570      0.2616
    177  O        -29.9130  -10.5110   -4.6320 O.2   570  ALA570     -0.2715
    178  CB       -26.9870   -9.3660   -3.9990 C.3   570  ALA570      0.0334
    179  N        -28.6020  -12.2420   -4.0080 N.am  571  LEU571     -0.1977
    180  CA       -29.6380  -13.0470   -3.3410 C.3   571  LEU571      0.1596
    181  C        -30.4060  -13.9170   -4.3360 C.2   571  LEU571      0.2287
    182  O        -30.4860  -13.5900   -5.5190 O.2   571  LEU571     -0.2864
    183  CB       -30.6070  -12.1810   -2.5100 C.3   571  LEU571      0.0297
    184  CG       -30.2360  -11.8370   -1.0810 C.3   571  LEU571      0.0022
    185  CD1      -28.7260  -11.7440   -0.8420 C.3   571  LEU571      0.0001
    186  CD2      -30.9560  -10.6310   -0.6270 C.3   571  LEU571      0.0001
    187  N        -30.0680  -10.1540  -14.9230 N.3   594  HIS594     -0.1241
    188  CA       -28.7000  -10.4880  -14.5590 C.3   594  HIS594      0.1621
    189  C        -28.6570  -10.9220  -13.0690 C.2   594  HIS594      0.2264
    190  O        -29.4850  -10.4840  -12.2720 O.2   594  HIS594     -0.2867
    191  CB       -27.8530   -9.2730  -14.8600 C.3   594  HIS594      0.0745
    192  CG       -26.4260   -9.3750  -14.4290 C.ar  594  HIS594      0.0817
    193  ND1      -25.5880  -10.3960  -14.8180 N.ar  594  HIS594     -0.2268
    194  CD2      -25.6650   -8.5210  -13.7100 C.ar  594  HIS594      0.1154
    195  CE1      -24.3770  -10.1940  -14.3220 C.ar  594  HIS594      0.1986
    196  NE2      -24.3970   -9.0570  -13.6470 N.ar  594  HIS594     -0.2212
    197  N        -25.8920  -17.6320   -6.6150 N.3   599  TYR599     -0.1241
    198  CA       -27.3210  -17.6140   -6.3110 C.3   599  TYR599      0.1605
    199  C        -28.1010  -18.5280   -7.2530 C.2   599  TYR599      0.2264
    200  O        -27.6420  -18.8470   -8.3450 O.2   599  TYR599     -0.2867
    201  CB       -27.8990  -16.1820   -6.2990 C.3   599  TYR599      0.0534
    202  CG       -27.0820  -15.2540   -5.4310 C.ar  599  TYR599     -0.0201
    203  CD1      -27.0540  -15.4070   -4.0400 C.ar  599  TYR599     -0.0009
    204  CD2      -26.2970  -14.2590   -5.9990 C.ar  599  TYR599     -0.0009
    205  CE1      -26.2770  -14.5700   -3.2440 C.ar  599  TYR599      0.0417
    206  CE2      -25.5110  -13.4330   -5.2190 C.ar  599  TYR599      0.0417
    207  CZ       -25.5060  -13.5990   -3.8430 C.ar  599  TYR599      0.1957
    208  OH       -24.7410  -12.7590   -3.0800 O.3   599  TYR599     -0.2866
@<TRIPOS>BOND
     1    82    83    1
     2    83    86    1
     3    83    84    1
     4    52    53    1
     5    86    87    1
     6    55    54    2
     7    84    85    2
     8    54    53    1
     9    53    56    1
    10    87    89   ar
    11    87    88   ar
    12    92    89   ar
    13    92    94   ar
    14    56    58    1
    15    56    57    1
    16    36    37    1
    17    89    91   ar
    18    88    90   ar
    19    63    62    2
    20    60    61    1
    21    39    38    2
    22    94    95   ar
    23    57    59    1
    24    37    38    1
    25    37    40    1
    26    62    61    1
    27    38    44   am
    28    91    90   ar
    29    91    93   ar
    30    61    64    1
    31    96    97    1
    32   134   135    1
    33    95    93   ar
    34   123   124    1
    35    47    46    2
    36    44    45    1
    37    40    41    1
    38    45    46    1
    39    45    48    1
    40   144   146   ar
    41   144   141   ar
    42   146   147   ar
    43    64    65    1
    44   138   135    1
    45   138   139    1
    46   135   136    1
    47    97   100    1
    48    97    98    1
    49   100   101    1
    50    65    66   ar
    51    65    67   ar
    52    50    48    1
    53    99    98    2
    54    41    42   ar
    55    41    43   ar
    56   141   139   ar
    57   141   143   ar
    58    48    49    1
    59   147   145   ar
    60   139   140   ar
    61   124   125    1
    62   124   127    1
    63   187   188    1
    64   191   188    1
    65   191   192    1
    66   193   192   ar
    67   193   195   ar
    68    98   104   am
    69   125   126    2
    70   188   189    1
    71   192   194   ar
    72   195   196   ar
    73   136   137    2
    74   143   145   ar
    75   143   142   ar
    76   101   102   ar
    77   101   103   ar
    78   127   128    1
    79   140   142   ar
    80   194   196   ar
    81    49    51    1
    82    24    25    1
    83   104   105    1
    84   189   190    2
    85    25    26    1
    86    25    28    1
    87   106   105    1
    88   106   107    2
    89   128   129    1
    90    26    27    2
    91   105   108    1
    92   108   109    1
    93   109   110    1
    94    74    76   ar
    95    74    73   ar
    96   129   130    1
    97    31    33   ar
    98    31    29   ar
    99    28    29    1
   100    72    73    1
   101    72    69    1
   102    76    77   ar
   103    33    34   ar
   104   130   131    2
   105    73    75   ar
   106    29    30   ar
   107    70    69    1
   108    70    71    2
   109   110   111    1
   110   131   132    1
   111   131   133    1
   112    69    68    1
   113   171   169   ar
   114   171   173   ar
   115   169   168   ar
   116    77    75   ar
   117    77    79   ar
   118    75    78   ar
   119    34    35    1
   120    34    32   ar
   121    30    32   ar
   122   154   153   ar
   123   173   172   ar
   124    79    81   ar
   125   168   167    1
   126   168   170   ar
   127    78    80   ar
   128   148   149    1
   129   167   164    1
   130   164   163    1
   131   164   165    1
   132   200   199    2
   133   153   155   ar
   134   153   152    1
   135    81    80   ar
   136   172   170   ar
   137   149   152    1
   138   149   150    1
   139   166   165    2
   140   165   174   am
   141   199   198    1
   142   122   121   ar
   143   122   120   ar
   144   150   151    2
   145     8     6   ar
   146   121   119   ar
   147     6     5    1
   148     6     7   ar
   149     5     2    1
   150   197   198    1
   151   120   118   ar
   152     1     2    1
   153     2     3    1
   154   174   175    1
   155   198   201    1
   156   201   202    1
   157   119   117   ar
   158   204   202   ar
   159   204   206   ar
   160   118   117   ar
   161   182   181    2
   162   117   116    1
   163   202   203   ar
   164   156   157    1
   165   112   113    1
   166   159   158    2
   167   206   207   ar
   168   175   176    1
   169   175   178    1
   170     3     4    2
   171   158   157    1
   172   177   176    2
   173   176   179   am
   174   116   113    1
   175   157   160    1
   176   181   180    1
   177   113   114    1
   178   203   205   ar
   179   179   180    1
   180   207   205   ar
   181   207   208    1
   182    11    10    1
   183    11    12    2
   184   180   183    1
   185    10     9    1
   186    10    13    1
   187   160   161    1
   188   160   162    1
   189   114   115    2
   190    15    13    1
   191   183   184    1
   192    16    17    1
   193    13    14    1
   194    17    18    1
   195    17    20    1
   196    19    18    2
   197   184   185    1
   198   184   186    1
   199    20    21    1
   200    21    22    2
   201    21    23   am
