@<TRIPOS>MOLECULE
tmp/2qmmA00.pdb
 158 155 0 0 0
SMALL
GASTEIGER

@<TRIPOS>ATOM
      1  N          3.1350   44.7300  -22.8160 N.3   127  TYR127     -0.1227
      2  CA         4.1460   43.7420  -23.1000 C.3   127  TYR127      0.1736
      3  C          5.0460   43.6410  -21.8490 C.2   127  TYR127      0.2595
      4  O          5.6070   44.6530  -21.3870 O.2   127  TYR127     -0.2718
      5  CB         4.9340   44.1410  -24.3730 C.3   127  TYR127      0.0548
      6  CG         6.0770   43.2220  -24.7490 C.ar  127  TYR127     -0.0200
      7  CD1        6.0300   41.8550  -24.4370 C.ar  127  TYR127     -0.0009
      8  CD2        7.1950   43.7050  -25.4430 C.ar  127  TYR127     -0.0009
      9  CE1        7.0810   41.0010  -24.7710 C.ar  127  TYR127      0.0417
     10  CE2        8.2480   42.8450  -25.8050 C.ar  127  TYR127      0.0417
     11  CZ         8.1720   41.4980  -25.4570 C.ar  127  TYR127      0.1957
     12  OH         9.1610   40.5970  -25.7890 O.3   127  TYR127     -0.2866
     13  N          5.1360   42.4410  -21.2770 N.am  128  LEU128     -0.1966
     14  CA         6.0130   42.2220  -20.1250 C.3   128  LEU128      0.1728
     15  C          7.3710   41.7450  -20.6030 C.2   128  LEU128      0.2616
     16  O          7.4590   40.7170  -21.2740 O.2   128  LEU128     -0.2715
     17  CB         5.4100   41.1910  -19.1390 C.3   128  LEU128      0.0311
     18  CG         4.1020   41.6610  -18.4830 C.3   128  LEU128      0.0022
     19  CD1        3.5410   40.6350  -17.4810 C.3   128  LEU128      0.0001
     20  CD2        4.3190   43.0730  -17.8060 C.3   128  LEU128      0.0001
     21  N          8.4290   42.4930  -20.2670 N.am  129  LYS129     -0.1963
     22  CA         9.7960   42.0830  -20.5980 C.3   129  LYS129      0.1728
     23  C         10.7720   42.6970  -19.5930 C.2   129  LYS129      0.2616
     24  O         10.5600   43.8260  -19.0930 O.2   129  LYS129     -0.2715
     25  CB        10.1890   42.4560  -22.0350 C.3   129  LYS129      0.0311
     26  CG        11.3550   41.6310  -22.5690 C.3   129  LYS129      0.0038
     27  CD        11.8080   42.1200  -23.9500 C.3   129  LYS129      0.0206
     28  CE        12.9630   41.2350  -24.4810 C.3   129  LYS129      0.1093
     29  NZ        13.4360   41.6440  -25.8450 N.3   129  LYS129     -0.1314
     30  N         11.8290   41.9400  -19.3000 N.am  130  GLU130     -0.1977
     31  CA        12.7860   42.2960  -18.2470 C.3   130  GLU130      0.1602
     32  C         13.3710   43.6920  -18.4120 C.2   130  GLU130      0.2287
     33  O         13.7430   44.3210  -17.4220 O.2   130  GLU130     -0.2864
     34  CB        13.9390   41.2930  -18.1990 C.3   130  GLU130      0.0415
     35  CG        13.5050   39.8950  -17.8270 C.3   130  GLU130      0.1163
     36  CD        13.2890   39.0110  -19.0450 C.2   130  GLU130      0.3649
     37  OE1       12.5020   39.3880  -19.9670 O.co2 130  GLU130     -0.2457
     38  OE2       13.9080   37.9160  -19.0550 O.co2 130  GLU130     -0.2457
     39  N          3.2230   37.7460  -22.6540 N.3   148  ILE148     -0.1231
     40  CA         4.3610   37.1490  -21.9360 C.3   148  ILE148      0.1692
     41  C          4.9290   36.0870  -22.8900 C.2   148  ILE148      0.2593
     42  O          4.1740   35.2910  -23.4140 O.2   148  ILE148     -0.2718
     43  CB         3.8720   36.4700  -20.5830 C.3   148  ILE148      0.0266
     44  CG1        3.3660   37.5170  -19.5660 C.3   148  ILE148      0.0019
     45  CG2        4.9940   35.6800  -19.9110 C.3   148  ILE148      0.0020
     46  CD1        2.5260   36.8970  -18.3890 C.3   148  ILE148      0.0001
     47  N          6.2440   36.0820  -23.1250 N.am  149  GLY149     -0.1942
     48  CA         6.8660   34.9710  -23.8600 C.3   149  GLY149      0.2014
     49  C          7.1110   33.7060  -23.0400 C.2   149  GLY149      0.2639
     50  O          7.0750   33.7190  -21.8140 O.2   149  GLY149     -0.2714
     51  N          7.3150   32.5890  -23.7330 N.am  150  ASP150     -0.1957
     52  CA         7.5030   31.2580  -23.0950 C.3   150  ASP150      0.1840
     53  C          8.9360   31.1320  -22.5820 C.2   150  ASP150      0.2622
     54  O          9.7000   32.0760  -22.6120 O.2   150  ASP150     -0.2715
     55  CB         7.2550   30.1380  -24.1430 C.3   150  ASP150      0.1450
     56  CG         8.1800   30.2640  -25.3830 C.2   150  ASP150      0.3671
     57  OD1        9.3080   30.8180  -25.2770 O.co2 150  ASP150     -0.2456
     58  OD2        7.7840   29.8210  -26.4730 O.co2 150  ASP150     -0.2456
     59  N          9.3270   29.9330  -22.1630 N.am  151  HIS151     -0.1959
     60  CA        10.7580   29.6480  -21.8740 C.3   151  HIS151      0.1787
     61  C         11.8530   30.4950  -22.6010 C.2   151  HIS151      0.2620
     62  O         12.8490   30.8580  -21.9770 O.2   151  HIS151     -0.2715
     63  CB        11.0460   28.1300  -21.9780 C.3   151  HIS151      0.0785
     64  CG        10.8590   27.5590  -23.3570 C.ar  151  HIS151      0.0821
     65  ND1        9.6210   27.4280  -23.9530 N.ar  151  HIS151     -0.2267
     66  CD2       11.7580   27.0790  -24.2520 C.ar  151  HIS151      0.1154
     67  CE1        9.7680   26.9150  -25.1640 C.ar  151  HIS151      0.1986
     68  NE2       11.0540   26.6900  -25.3680 N.ar  151  HIS151     -0.2212
     69  N         11.6700   30.8440  -23.8780 N.am  152  GLU152     -0.1963
     70  CA        12.7340   31.5360  -24.6600 C.3   152  GLU152      0.1733
     71  C         12.4650   33.0230  -25.0360 C.2   152  GLU152      0.2617
     72  O         13.3780   33.7380  -25.4680 O.2   152  GLU152     -0.2715
     73  CB        13.0850   30.7080  -25.9160 C.3   152  GLU152      0.0429
     74  CG        13.6870   29.3180  -25.5890 C.3   152  GLU152      0.1163
     75  CD        13.9970   28.4470  -26.8130 C.2   152  GLU152      0.3649
     76  OE1       13.4490   28.6950  -27.9130 O.co2 152  GLU152     -0.2457
     77  OE2       14.8000   27.4900  -26.6600 O.co2 152  GLU152     -0.2457
     78  N         11.2240   33.4850  -24.8680 N.am  153  GLY153     -0.1940
     79  CA        10.8490   34.8970  -25.1440 C.3   153  GLY153      0.2014
     80  C         10.3720   35.1600  -26.5680 C.2   153  GLY153      0.2638
     81  O         10.5440   34.3140  -27.4590 O.2   153  GLY153     -0.2714
     82  N          9.7870   36.3380  -26.8090 N.am  154  LEU154     -0.1977
     83  CA         9.3130   36.6950  -28.1630 C.3   154  LEU154      0.1596
     84  C         10.4570   36.9210  -29.1710 C.2   154  LEU154      0.2287
     85  O         11.5070   37.4220  -28.7990 O.2   154  LEU154     -0.2864
     86  CB         8.4250   37.9490  -28.1110 C.3   154  LEU154      0.0297
     87  CG         6.9080   37.7720  -27.9090 C.3   154  LEU154      0.0022
     88  CD1        6.5190   36.8820  -26.7670 C.3   154  LEU154      0.0001
     89  CD2        6.1930   39.1230  -27.7860 C.3   154  LEU154      0.0001
     90  N          6.7370   46.7490  -19.7990 N.3   170  LEU170     -0.1231
     91  CA         7.0420   46.8780  -18.3660 C.3   170  LEU170      0.1693
     92  C          7.7680   45.6680  -17.8380 C.2   170  LEU170      0.2593
     93  O          7.4710   44.5410  -18.2370 O.2   170  LEU170     -0.2718
     94  CB         5.7660   47.0680  -17.5400 C.3   170  LEU170      0.0284
     95  CG         4.7410   48.1320  -17.9230 C.3   170  LEU170      0.0019
     96  CD1        3.5070   47.9740  -17.0840 C.3   170  LEU170      0.0001
     97  CD2        5.3010   49.5420  -17.7880 C.3   170  LEU170      0.0001
     98  N          8.6970   45.9430  -16.9250 N.am  171  SER171     -0.1938
     99  CA         9.4130   44.9910  -16.1240 C.3   171  SER171      0.2055
    100  C          8.7000   44.8880  -14.7580 C.2   171  SER171      0.2643
    101  O          8.1490   45.8710  -14.2710 O.2   171  SER171     -0.2714
    102  CB        10.8420   45.4920  -15.9250 C.3   171  SER171      0.2130
    103  OG        11.5700   44.5470  -15.1710 O.3   171  SER171     -0.2179
    104  N          8.6960   43.7130  -14.1430 N.am  172  LEU172     -0.1963
    105  CA         8.0710   43.5370  -12.8200 C.3   172  LEU172      0.1728
    106  C          9.0570   42.9740  -11.8130 C.2   172  LEU172      0.2616
    107  O          8.6620   42.6350  -10.6980 O.2   172  LEU172     -0.2715
    108  CB         6.9350   42.5030  -12.8820 C.3   172  LEU172      0.0311
    109  CG         6.0410   42.3780  -14.0940 C.3   172  LEU172      0.0022
    110  CD1        5.2220   41.1010  -14.0210 C.3   172  LEU172      0.0001
    111  CD2        5.1310   43.5820  -14.0910 C.3   172  LEU172      0.0001
    112  N         10.3200   42.8030  -12.2010 N.am  173  SER173     -0.1950
    113  CA        11.3130   42.2260  -11.2790 C.3   173  SER173      0.1924
    114  C         12.7040   42.5350  -11.7640 C.2   173  SER173      0.2314
    115  O         12.9090   42.5680  -12.9690 O.2   173  SER173     -0.2863
    116  CB        11.1720   40.6840  -11.2300 C.3   173  SER173      0.2116
    117  OG        12.2520   40.0570  -10.5400 O.3   173  SER173     -0.2180
    118  N         15.0240   40.4210  -11.6070 N.3   175  LEU175     -0.1231
    119  CA        15.5200   39.1430  -12.1530 C.3   175  LEU175      0.1693
    120  C         14.6850   38.6830  -13.3490 C.2   175  LEU175      0.2593
    121  O         13.5330   39.1350  -13.5300 O.2   175  LEU175     -0.2718
    122  CB        15.5270   38.0320  -11.0870 C.3   175  LEU175      0.0284
    123  CG        16.2940   38.2530   -9.7860 C.3   175  LEU175      0.0019
    124  CD1       16.1780   37.0260   -8.8470 C.3   175  LEU175      0.0001
    125  CD2       17.7390   38.5940  -10.1050 C.3   175  LEU175      0.0001
    126  N         15.2580   37.7860  -14.1500 N.am  176  SER176     -0.1938
    127  CA        14.5300   37.1820  -15.2490 C.3   176  SER176      0.2055
    128  C         13.7130   36.0090  -14.6670 C.2   176  SER176      0.2643
    129  O         14.2680   35.0330  -14.1790 O.2   176  SER176     -0.2714
    130  CB        15.4990   36.7320  -16.3380 C.3   176  SER176      0.2130
    131  OG        14.7950   36.1460  -17.4090 O.3   176  SER176     -0.2179
    132  N         12.3950   36.1380  -14.7090 N.am  177  LEU177     -0.1963
    133  CA        11.5010   35.1730  -14.0430 C.3   177  LEU177      0.1728
    134  C         10.8570   34.1970  -15.0220 C.2   177  LEU177      0.2616
    135  O         10.8510   34.4440  -16.2400 O.2   177  LEU177     -0.2715
    136  CB        10.4270   35.9330  -13.3010 C.3   177  LEU177      0.0311
    137  CG        10.8870   36.9650  -12.2510 C.3   177  LEU177      0.0022
    138  CD1        9.7070   37.5960  -11.6270 C.3   177  LEU177      0.0001
    139  CD2       11.7850   36.3070  -11.1720 C.3   177  LEU177      0.0001
    140  N         10.3410   33.0800  -14.4980 N.am  178  LEU178     -0.1963
    141  CA         9.5100   32.1740  -15.2730 C.3   178  LEU178      0.1728
    142  C          8.2510   32.9180  -15.6550 C.2   178  LEU178      0.2616
    143  O          7.7820   33.7780  -14.9090 O.2   178  LEU178     -0.2715
    144  CB         9.0930   30.9410  -14.4350 C.3   178  LEU178      0.0311
    145  CG        10.1970   30.0620  -13.8430 C.3   178  LEU178      0.0022
    146  CD1        9.6350   28.7660  -13.2740 C.3   178  LEU178      0.0001
    147  CD2       11.1570   29.7540  -14.9510 C.3   178  LEU178      0.0001
    148  N          7.6960   32.5390  -16.7950 N.am  179  ALA179     -0.1977
    149  CA         6.5080   33.1790  -17.3590 C.3   179  ALA179      0.1597
    150  C          5.3440   33.2280  -16.3660 C.2   179  ALA179      0.2287
    151  O          4.6930   34.2620  -16.2240 O.2   179  ALA179     -0.2864
    152  CB         6.0950   32.4790  -18.6510 C.3   179  ALA179      0.0319
    153  N          5.6660   35.9390  -13.7090 N.3   182  CYS182     -0.1235
    154  CA         5.1820   37.2300  -14.2350 C.3   182  CYS182      0.1677
    155  C          3.6620   37.3520  -14.0860 C.2   182  CYS182      0.2270
    156  O          3.1620   38.4190  -13.7090 O.2   182  CYS182     -0.2867
    157  CB         5.5720   37.3770  -15.7080 C.3   182  CYS182      0.0956
    158  SG         7.3820   37.3470  -15.9370 S.3   182  CYS182     -0.0801
@<TRIPOS>BOND
     1    84    85    2
     2    84    83    1
     3    83    86    1
     4    83    82    1
     5    86    87    1
     6    76    75   ar
     7    87    89    1
     8    87    88    1
     9    81    80    2
    10    75    77   ar
    11    75    74    1
    12    82    80   am
    13    80    79    1
    14    58    56   ar
    15    73    74    1
    16    73    70    1
    17    29    28    1
    18    10    11   ar
    19    10     8   ar
    20    12    11    1
    21    72    71    2
    22    11     9   ar
    23     8     6   ar
    24    56    57   ar
    25    56    55    1
    26    68    67   ar
    27    68    66   ar
    28    67    65   ar
    29    79    78    1
    30    71    78   am
    31    71    70    1
    32     9     7   ar
    33     6     7   ar
    34     6     5    1
    35    70    69    1
    36    28    27    1
    37     5     2    1
    38    66    64   ar
    39    55    52    1
    40    65    64   ar
    41    27    26    1
    42    69    61   am
    43    48    47    1
    44    48    49    1
    45    51    52    1
    46    51    49   am
    47    42    41    2
    48    64    63    1
    49    47    41   am
    50     2     1    1
    51     2     3    1
    52    52    53    1
    53    49    50    2
    54    41    40    1
    55    39    40    1
    56    54    53    2
    57    61    62    2
    58    61    60    1
    59    53    59   am
    60    26    25    1
    61    59    60    1
    62    25    22    1
    63    63    60    1
    64    40    43    1
    65     3     4    2
    66     3    13   am
    67    13    14    1
    68    16    15    2
    69    15    21   am
    70    15    14    1
    71    22    21    1
    72    22    23    1
    73    43    45    1
    74    43    44    1
    75    14    17    1
    76    37    36   ar
    77    90    91    1
    78    23    30   am
    79    23    24    2
    80    44    46    1
    81    30    31    1
    82    17    18    1
    83    38    36   ar
    84    36    35    1
    85   152   149    1
    86    18    20    1
    87    18    19    1
    88    32    31    1
    89    32    33    2
    90    91    92    1
    91    91    94    1
    92    31    34    1
    93    93    92    2
    94    34    35    1
    95    95    97    1
    96    95    94    1
    97    95    96    1
    98    92    98   am
    99   131   130    1
   100   149   148    1
   101   149   150    1
   102    98    99    1
   103   148   142   am
   104   150   151    2
   105   130   127    1
   106   135   134    2
   107    99   102    1
   108    99   100    1
   109   158   157    1
   110   102   103    1
   111   157   154    1
   112   142   141    1
   113   142   143    2
   114   141   140    1
   115   141   144    1
   116   127   128    1
   117   127   126    1
   118   134   140   am
   119   134   133    1
   120   147   145    1
   121   100   101    2
   122   100   104   am
   123   132   128   am
   124   132   133    1
   125   128   129    2
   126   144   145    1
   127   154   155    1
   128   154   153    1
   129   126   120   am
   130   104   105    1
   131   109   111    1
   132   109   110    1
   133   109   108    1
   134   155   156    2
   135   133   136    1
   136   145   146    1
   137   121   120    2
   138   120   119    1
   139   136   137    1
   140   115   114    2
   141   108   105    1
   142   105   106    1
   143   137   138    1
   144   137   139    1
   145   112   106   am
   146   112   113    1
   147   119   118    1
   148   119   122    1
   149   106   107    2
   150   114   113    1
   151   113   116    1
   152   116   117    1
   153   122   123    1
   154   125   123    1
   155   123   124    1
