@<TRIPOS>MOLECULE
tmp/2qmqA00.pdb
 114 112 0 0 0
SMALL
GASTEIGER

@<TRIPOS>ATOM
      1  N          3.9210   23.3990   -2.9530 N.3     1  HIS1       -0.1241
      2  CA         3.6260   24.4940   -1.9970 C.3     1  HIS1        0.1621
      3  C          3.1240   25.7320   -2.7520 C.2     1  HIS1        0.2264
      4  O          3.7300   26.8280   -2.6720 O.2     1  HIS1       -0.2867
      5  CB         4.8620   24.8430   -1.1500 C.3     1  HIS1        0.0745
      6  CG         6.0540   25.3970   -1.9120 C.ar    1  HIS1        0.0817
      7  ND1        6.9400   24.6950   -2.5980 N.ar    1  HIS1       -0.2268
      8  CD2        6.3910   26.7290   -2.0280 C.ar    1  HIS1        0.1154
      9  CE1        7.7980   25.5310   -3.1290 C.ar    1  HIS1        0.1986
     10  NE2        7.4720   26.7620   -2.7890 N.ar    1  HIS1       -0.2212
     11  N         -2.3880   29.4640    1.6880 N.3    20  TYR20      -0.1241
     12  CA        -2.1530   28.1110    1.1870 C.3    20  TYR20       0.1605
     13  C         -3.4100   27.2850    1.4270 C.2    20  TYR20       0.2264
     14  O         -4.1480   27.5080    2.3930 O.2    20  TYR20      -0.2867
     15  CB        -1.0190   27.4250    1.9230 C.3    20  TYR20       0.0534
     16  CG         0.3450   27.9790    1.7160 C.ar   20  TYR20      -0.0201
     17  CD1        0.7250   29.1530    2.3260 C.ar   20  TYR20      -0.0009
     18  CD2        1.2710   27.3380    0.9250 C.ar   20  TYR20      -0.0009
     19  CE1        2.0290   29.6730    2.1410 C.ar   20  TYR20       0.0417
     20  CE2        2.5650   27.8540    0.7580 C.ar   20  TYR20       0.0417
     21  CZ         2.9290   29.0010    1.3570 C.ar   20  TYR20       0.1957
     22  OH         4.2440   29.4970    1.2060 O.3    20  TYR20      -0.2866
     23  N          6.8890   34.8000    8.1630 N.3    40  TYR40      -0.1227
     24  CA         6.1430   33.5320    8.2340 C.3    40  TYR40       0.1736
     25  C          6.9890   32.3320    7.8190 C.2    40  TYR40       0.2595
     26  O          6.8470   31.2530    8.3870 O.2    40  TYR40      -0.2718
     27  CB         4.7990   33.6160    7.4660 C.3    40  TYR40       0.0548
     28  CG         4.8420   33.1880    6.0220 C.ar   40  TYR40      -0.0200
     29  CD1        4.6960   31.8800    5.6940 C.ar   40  TYR40      -0.0009
     30  CD2        4.9970   34.0980    4.9940 C.ar   40  TYR40      -0.0009
     31  CE1        4.7480   31.4290    4.3320 C.ar   40  TYR40       0.0417
     32  CE2        5.0420   33.6930    3.6580 C.ar   40  TYR40       0.0417
     33  CZ         4.8960   32.3570    3.3230 C.ar   40  TYR40       0.1957
     34  OH         4.9380   31.9000    2.0110 O.3    40  TYR40      -0.2866
     35  N          7.8770   32.5090    6.8490 N.am   41  LYS41      -0.1980
     36  CA         8.6870   31.3690    6.3770 C.3    41  LYS41       0.1596
     37  C          9.7460   30.9640    7.4060 C.2    41  LYS41       0.2287
     38  O          9.8260   29.7780    7.7610 O.2    41  LYS41      -0.2864
     39  CB         9.3340   31.6830    5.0660 C.3    41  LYS41       0.0298
     40  CG         8.3830   31.5960    3.9170 C.3    41  LYS41       0.0038
     41  CD         9.1580   31.4310    2.6270 C.3    41  LYS41       0.0206
     42  CE         8.2700   31.6200    1.4160 C.3    41  LYS41       0.1093
     43  NZ         9.0150   31.1800    0.1890 N.3    41  LYS41      -0.1314
     44  N          7.5990   29.6270   10.6050 N.3    44  PHE44      -0.1227
     45  CA         6.6320   28.5270   10.5080 C.3    44  PHE44       0.1736
     46  C          6.9030   27.4810    9.4290 C.2    44  PHE44       0.2595
     47  O          6.2830   26.4130    9.4730 O.2    44  PHE44      -0.2718
     48  CB         5.2200   29.0810   10.3320 C.3    44  PHE44       0.0547
     49  CG         4.7270   29.8660   11.5100 C.ar   44  PHE44      -0.0202
     50  CD1        4.5080   29.2190   12.7250 C.ar   44  PHE44      -0.0042
     51  CD2        4.4970   31.2470   11.4300 C.ar   44  PHE44      -0.0042
     52  CE1        4.0250   29.9070   13.8220 C.ar   44  PHE44      -0.0003
     53  CE2        4.0340   31.9360   12.5340 C.ar   44  PHE44      -0.0003
     54  CZ         3.7950   31.2900   13.7210 C.ar   44  PHE44      -0.0000
     55  N          7.7630   27.7580    8.4390 N.am   45  GLN45      -0.1979
     56  CA         7.9550   26.7380    7.3730 C.3    45  GLN45       0.1601
     57  C          8.4820   25.4290    7.9200 C.2    45  GLN45       0.2287
     58  O          7.9920   24.3690    7.5190 O.2    45  GLN45      -0.2864
     59  CB         8.8650   27.2200    6.2490 C.3    45  GLN45       0.0394
     60  CG         8.8800   26.2770    5.0010 C.3    45  GLN45       0.0908
     61  CD         9.5020   26.9650    3.7970 C.2    45  GLN45       0.2608
     62  OE1        9.1060   28.0560    3.4090 O.2    45  GLN45      -0.2717
     63  NE2       10.4790   26.3140    3.1950 N.am   45  GLN45      -0.0878
     64  N          5.3680   23.7470    9.3790 N.3    48  PHE48      -0.1227
     65  CA         4.2200   23.5480    8.4880 C.3    48  PHE48       0.1736
     66  C          4.5430   22.6570    7.3190 C.2    48  PHE48       0.2595
     67  O          3.6600   21.9990    6.7670 O.2    48  PHE48      -0.2718
     68  CB         3.5860   24.8660    8.0090 C.3    48  PHE48       0.0547
     69  CG         2.6270   25.4510    9.0010 C.ar   48  PHE48      -0.0202
     70  CD1        3.0740   25.8640   10.2400 C.ar   48  PHE48      -0.0042
     71  CD2        1.2520   25.4810    8.7490 C.ar   48  PHE48      -0.0042
     72  CE1        2.1870   26.3990   11.2120 C.ar   48  PHE48      -0.0003
     73  CE2        0.3490   25.9860    9.7100 C.ar   48  PHE48      -0.0003
     74  CZ         0.8030   26.4410   10.9290 C.ar   48  PHE48      -0.0000
     75  N          5.8080   22.5940    6.9490 N.am   49  ARG49      -0.1980
     76  CA         6.1840   21.7250    5.8400 C.3    49  ARG49       0.1597
     77  C          6.8320   20.4050    6.3050 C.2    49  ARG49       0.2287
     78  O          7.2060   19.5600    5.4840 O.2    49  ARG49      -0.2864
     79  CB         7.0470   22.5140    4.8510 C.3    49  ARG49       0.0334
     80  CG         6.2530   23.4980    3.9950 C.3    49  ARG49       0.0492
     81  CD         5.3350   22.7160    3.0360 C.3    49  ARG49       0.2205
     82  NE         4.1730   23.4980    2.6280 N.pl3  49  ARG49      -0.0865
     83  CZ         3.3350   23.1760    1.6420 C.cat  49  ARG49       0.5346
     84  NH1        3.4980   22.0370    0.9390 N.pl3  49  ARG49       0.1354
     85  NH2        2.3250   24.0020    1.3710 N.pl3  49  ARG49       0.1354
     86  N         -2.4120   19.1820    8.3510 N.3    57  ILE57      -0.1245
     87  CA        -3.0110   20.5030    8.0300 C.3    57  ILE57       0.1561
     88  C         -3.4350   20.6660    6.5900 C.2    57  ILE57       0.2260
     89  O         -3.9900   21.7010    6.1920 O.2    57  ILE57      -0.2867
     90  CB        -2.1180   21.6810    8.4280 C.3    57  ILE57       0.0252
     91  CG1       -0.8340   21.6680    7.6260 C.3    57  ILE57       0.0019
     92  CG2       -1.9230   21.7070    9.9550 C.3    57  ILE57       0.0019
     93  CD1        0.0810   22.8540    7.9690 C.3    57  ILE57       0.0001
     94  N         -4.6280   27.9670    5.1410 N.3    62  ARG62      -0.1245
     95  CA        -3.6790   28.6040    6.0160 C.3    62  ARG62       0.1563
     96  C         -3.4730   30.0370    5.5450 C.2    62  ARG62       0.2260
     97  O         -3.3370   30.2780    4.3450 O.2    62  ARG62      -0.2867
     98  CB        -2.2940   27.9210    6.0180 C.3    62  ARG62       0.0307
     99  CG        -2.2170   26.5910    6.7450 C.3    62  ARG62       0.0489
    100  CD        -2.6370   25.4240    5.8700 C.3    62  ARG62       0.2205
    101  NE        -1.5630   25.1050    4.9330 N.pl3  62  ARG62      -0.0865
    102  CZ        -1.6970   24.2670    3.9090 C.cat  62  ARG62       0.5346
    103  NH1       -2.8450   23.6450    3.6850 N.pl3  62  ARG62       0.1354
    104  NH2       -0.6760   24.0390    3.1180 N.pl3  62  ARG62       0.1354
    105  N         -0.9740   33.0960    6.4140 N.3    64  HIS64      -0.1241
    106  CA         0.2690   33.4080    7.1260 C.3    64  HIS64       0.1621
    107  C          0.5670   34.8550    7.0390 C.2    64  HIS64       0.2264
    108  O          0.8140   35.3690    5.9450 O.2    64  HIS64      -0.2867
    109  CB         1.4460   32.6330    6.5370 C.3    64  HIS64       0.0745
    110  CG         1.3090   31.1500    6.6960 C.ar   64  HIS64       0.0817
    111  ND1        1.4120   30.5270    7.9170 N.ar   64  HIS64      -0.2268
    112  CD2        1.0480   30.1750    5.7970 C.ar   64  HIS64       0.1154
    113  CE1        1.2690   29.2210    7.7580 C.ar   64  HIS64       0.1986
    114  NE2        1.0590   28.9780    6.4740 N.ar   64  HIS64      -0.2212
@<TRIPOS>BOND
     1     9    10   ar
     2     9     7   ar
     3     1     2    1
     4    10     8   ar
     5     3     4    2
     6     3     2    1
     7     7     6   ar
     8     8     6   ar
     9     2     5    1
    10     6     5    1
    11    43    42    1
    12    20    18   ar
    13    20    21   ar
    14    18    16   ar
    15    84    83    1
    16    12    13    1
    17    12    11    1
    18    12    15    1
    19    22    21    1
    20    21    19   ar
    21    85    83    1
    22    42    41    1
    23    13    14    2
    24    83    82    2
    25    16    15    1
    26    16    17   ar
    27    34    33    1
    28    19    17   ar
    29    41    40    1
    30    82    81    1
    31    81    80    1
    32   104   102    1
    33    63    61   am
    34    33    32   ar
    35    33    31   ar
    36    62    61    2
    37    32    30   ar
    38   103   102    1
    39    61    60    1
    40   102   101    2
    41    40    39    1
    42    80    79    1
    43    31    29   ar
    44    97    96    2
    45    79    76    1
    46   101   100    1
    47    30    28   ar
    48    60    59    1
    49    39    36    1
    50    94    95    1
    51    78    77    2
    52    96    95    1
    53    29    28   ar
    54   112   114   ar
    55   112   110   ar
    56    76    77    1
    57    76    75    1
    58   100    99    1
    59   108   107    2
    60    95    98    1
    61    98    99    1
    62    28    27    1
    63    89    88    2
    64    59    56    1
    65    36    35    1
    66    36    37    1
    67   105   106    1
    68   114   113   ar
    69   109   110    1
    70   109   106    1
    71    88    87    1
    72   110   111   ar
    73    67    66    2
    74    35    25   am
    75    75    66   am
    76   107   106    1
    77    66    65    1
    78    56    57    1
    79    56    55    1
    80    37    38    2
    81    27    24    1
    82    58    57    2
    83    91    93    1
    84    91    90    1
    85   113   111   ar
    86    25    24    1
    87    25    26    2
    88    68    65    1
    89    68    69    1
    90    87    86    1
    91    87    90    1
    92    23    24    1
    93    90    92    1
    94    55    46   am
    95    65    64    1
    96    71    69   ar
    97    71    73   ar
    98    69    70   ar
    99    46    47    2
   100    46    45    1
   101    73    74   ar
   102    70    72   ar
   103    48    45    1
   104    48    49    1
   105    45    44    1
   106    74    72   ar
   107    51    49   ar
   108    51    53   ar
   109    49    50   ar
   110    53    54   ar
   111    50    52   ar
   112    54    52   ar
