@<TRIPOS>MOLECULE
tmp/2qmxB00.pdb
 92 90 0 0 0
SMALL
GASTEIGER

@<TRIPOS>ATOM
      1  N         -5.8120   14.7540   23.3790 N.3   200  LEU200     -0.1245
      2  CA        -5.6580   13.3880   23.9090 C.3   200  LEU200      0.1561
      3  C         -5.1410   13.4330   25.3360 C.2   200  LEU200      0.2260
      4  O         -4.3090   14.2620   25.6230 O.2   200  LEU200     -0.2867
      5  CB        -4.5500   12.7480   23.1160 C.3   200  LEU200      0.0270
      6  CG        -4.8250   11.9000   21.9210 C.3   200  LEU200      0.0019
      7  CD1       -6.2620   11.9690   21.2520 C.3   200  LEU200      0.0001
      8  CD2       -3.6900   12.0910   20.9790 C.3   200  LEU200      0.0001
      9  N         -2.5210   12.4010   27.9150 N.3   202  ASN202     -0.1225
     10  CA        -1.1580   12.1650   27.4530 C.3   202  ASN202      0.1785
     11  C         -0.4970   10.8030   27.8270 C.2   202  ASN202      0.2597
     12  O          0.5110   10.7290   28.5510 O.2   202  ASN202     -0.2718
     13  CB        -0.2940   13.3850   27.7480 C.3   202  ASN202      0.1169
     14  CG         1.1080   13.2540   27.2010 C.2   202  ASN202      0.2627
     15  OD1        1.3610   12.5620   26.2210 O.2   202  ASN202     -0.2716
     16  ND2        2.0420   13.9210   27.8610 N.am  202  ASN202     -0.0877
     17  N         -1.0680    9.7110   27.3270 N.am  203  GLU203     -0.1965
     18  CA        -0.4880    8.3900   27.5310 C.3   203  GLU203      0.1733
     19  C          0.4840    8.1640   26.4270 C.2   203  GLU203      0.2616
     20  O          0.3070    8.6750   25.2980 O.2   203  GLU203     -0.2715
     21  CB        -1.5480    7.3310   27.4610 C.3   203  GLU203      0.0429
     22  CG        -2.2570    7.1580   28.7660 C.3   203  GLU203      0.1163
     23  CD        -3.7230    6.8230   28.5460 C.2   203  GLU203      0.3649
     24  OE1       -4.0160    5.9670   27.6500 O.co2 203  GLU203     -0.2457
     25  OE2       -4.5750    7.4250   29.2630 O.co2 203  GLU203     -0.2457
     26  N          1.5420    7.4230   26.7600 N.am  204  GLN204     -0.1963
     27  CA         2.5200    7.0200   25.7630 C.3   204  GLN204      0.1733
     28  C          1.7200    6.2420   24.6830 C.2   204  GLN204      0.2617
     29  O          0.7570    5.5580   25.0170 O.2   204  GLN204     -0.2715
     30  CB         3.6300    6.2280   26.4500 C.3   204  GLN204      0.0408
     31  CG         3.6020    4.7360   26.2090 C.3   204  GLN204      0.0908
     32  CD         4.1820    4.3360   24.8530 C.2   204  GLN204      0.2608
     33  OE1        4.9420    5.0480   24.2310 O.2   204  GLN204     -0.2717
     34  NE2        3.8360    3.1720   24.4350 N.am  204  GLN204     -0.0878
     35  N          2.0520    6.4380   23.4010 N.am  205  GLY205     -0.1940
     36  CA         1.3100    5.7690   22.2890 C.3   205  GLY205      0.2014
     37  C          0.0420    6.4120   21.7980 C.2   205  GLY205      0.2640
     38  O         -0.4280    6.1090   20.6990 O.2   205  GLY205     -0.2714
     39  N         -0.5440    7.3110   22.6110 N.am  206  SER206     -0.1935
     40  CA        -1.7060    8.1690   22.1840 C.3   206  SER206      0.2055
     41  C         -1.7360    8.6380   20.6800 C.2   206  SER206      0.2643
     42  O         -2.7000    8.5090   19.9470 O.2   206  SER206     -0.2714
     43  CB        -1.5930    9.4130   22.9930 C.3   206  SER206      0.2130
     44  OG        -2.5670    9.3680   23.9300 O.3   206  SER206     -0.2179
     45  N         -0.6840    9.2410   20.2510 N.am  207  LEU207     -0.1963
     46  CA        -0.7300    9.8480   18.9470 C.3   207  LEU207      0.1728
     47  C         -0.7480    8.7930   17.7660 C.2   207  LEU207      0.2616
     48  O         -1.5410    8.8970   16.7810 O.2   207  LEU207     -0.2715
     49  CB         0.4470   10.8580   18.8260 C.3   207  LEU207      0.0311
     50  CG         0.3710   11.5360   17.4990 C.3   207  LEU207      0.0022
     51  CD1       -0.9290   12.3850   17.3460 C.3   207  LEU207      0.0001
     52  CD2        1.6840   12.3430   17.2750 C.3   207  LEU207      0.0001
     53  N          0.0900    7.7620   17.9690 N.am  208  PHE208     -0.1974
     54  CA         0.1270    6.5550   17.2090 C.3   208  PHE208      0.1639
     55  C         -1.2610    5.9610   17.0660 C.2   208  PHE208      0.2290
     56  O         -1.7810    5.7820   15.9490 O.2   208  PHE208     -0.2864
     57  CB         1.0760    5.5990   17.9090 C.3   208  PHE208      0.0560
     58  CG         1.2180    4.2720   17.2270 C.ar  208  PHE208     -0.0200
     59  CD1        1.9020    4.1740   16.0310 C.ar  208  PHE208     -0.0042
     60  CD2        0.6290    3.1290   17.7810 C.ar  208  PHE208     -0.0042
     61  CE1        2.0120    2.9920   15.4220 C.ar  208  PHE208     -0.0003
     62  CE2        0.7240    1.9310   17.1660 C.ar  208  PHE208     -0.0003
     63  CZ         1.4210    1.8600   15.9720 C.ar  208  PHE208     -0.0000
     64  N          1.7870   19.0420   17.3400 N.3   226  SER226     -0.1217
     65  CA         1.2920   18.9890   18.7280 C.3   226  SER226      0.1889
     66  C          1.6070   20.3060   19.4300 C.2   226  SER226      0.2288
     67  O          2.5360   21.0150   19.0330 O.2   226  SER226     -0.2866
     68  CB         2.0400   17.9060   19.5110 C.3   226  SER226      0.2089
     69  OG         3.4360   18.1230   19.3710 O.3   226  SER226     -0.2183
     70  N         -2.3140   17.2430   25.4040 N.3   236  TYR236     -0.1241
     71  CA        -1.7350   17.8840   24.2220 C.3   236  TYR236      0.1605
     72  C         -2.8120   18.1570   23.1740 C.2   236  TYR236      0.2264
     73  O         -3.6970   17.3650   23.0710 O.2   236  TYR236     -0.2867
     74  CB        -0.6030   17.0080   23.6450 C.3   236  TYR236      0.0534
     75  CG         0.7130   17.2160   24.3410 C.ar  236  TYR236     -0.0201
     76  CD1        1.6230   18.1250   23.8330 C.ar  236  TYR236     -0.0009
     77  CD2        1.0460   16.5140   25.5000 C.ar  236  TYR236     -0.0009
     78  CE1        2.8270   18.3790   24.4610 C.ar  236  TYR236      0.0417
     79  CE2        2.2930   16.7420   26.1670 C.ar  236  TYR236      0.0417
     80  CZ         3.1570   17.6910   25.6090 C.ar  236  TYR236      0.1957
     81  OH         4.3620   17.9840   26.1540 O.3   236  TYR236     -0.2866
     82  N         -3.5790   18.7010   19.0230 N.3   238  PHE238     -0.1241
     83  CA        -2.9680   18.3020   17.7740 C.3   238  PHE238      0.1605
     84  C         -3.7200   18.9240   16.7000 C.2   238  PHE238      0.2264
     85  O         -4.9340   18.9710   16.7460 O.2   238  PHE238     -0.2867
     86  CB        -2.9490   16.7510   17.6070 C.3   238  PHE238      0.0534
     87  CG        -2.1630   16.0540   18.7030 C.ar  238  PHE238     -0.0203
     88  CD1       -0.7960   15.8070   18.5430 C.ar  238  PHE238     -0.0042
     89  CD2       -2.7730   15.7320   19.9070 C.ar  238  PHE238     -0.0042
     90  CE1       -0.0910   15.2650   19.5450 C.ar  238  PHE238     -0.0003
     91  CE2       -2.0740   15.1350   20.8980 C.ar  238  PHE238     -0.0003
     92  CZ        -0.7460   14.9030   20.7490 C.ar  238  PHE238     -0.0000
@<TRIPOS>BOND
     1    61    63   ar
     2    61    59   ar
     3    56    55    2
     4    63    62   ar
     5    59    58   ar
     6    84    85    2
     7    84    83    1
     8    48    47    2
     9    55    54    1
    10    62    60   ar
    11    54    57    1
    12    54    53    1
    13    58    60   ar
    14    58    57    1
    15    52    50    1
    16    64    65    1
    17    51    50    1
    18    50    49    1
    19    86    83    1
    20    86    87    1
    21    47    53   am
    22    47    46    1
    23    83    82    1
    24    88    87   ar
    25    88    90   ar
    26    87    89   ar
    27    65    66    1
    28    65    68    1
    29    49    46    1
    30    46    45    1
    31    67    66    2
    32    69    68    1
    33    90    92   ar
    34    89    91   ar
    35    42    41    2
    36    45    41   am
    37    41    40    1
    38    38    37    2
    39    92    91   ar
    40     8     6    1
    41     7     6    1
    42    37    36    1
    43    37    39   am
    44     6     5    1
    45    40    39    1
    46    40    43    1
    47    36    35    1
    48    43    44    1
    49    73    72    2
    50     5     2    1
    51    72    71    1
    52     1     2    1
    53    35    28   am
    54    74    71    1
    55    74    75    1
    56    76    75   ar
    57    76    78   ar
    58     2     3    1
    59    71    70    1
    60    33    32    2
    61    75    77   ar
    62    34    32   am
    63    78    80   ar
    64    28    29    2
    65    28    27    1
    66    32    31    1
    67    20    19    2
    68     3     4    2
    69    77    79   ar
    70    80    81    1
    71    80    79   ar
    72    27    30    1
    73    27    26    1
    74    31    30    1
    75    15    14    2
    76    19    26   am
    77    19    18    1
    78    14    13    1
    79    14    16   am
    80    17    18    1
    81    17    11   am
    82    10    13    1
    83    10    11    1
    84    10     9    1
    85    21    18    1
    86    21    22    1
    87    24    23   ar
    88    11    12    2
    89    23    22    1
    90    23    25   ar
