@<TRIPOS>MOLECULE
tmp/2qn2A00.pdb
 119 112 0 0 0
SMALL
GASTEIGER

@<TRIPOS>ATOM
      1  N         20.4230    1.2640   49.1750 N.3    57  ILE57      -0.1245
      2  CA        21.0230    0.2980   50.0910 C.3    57  ILE57       0.1561
      3  C         21.3620   -1.0420   49.4230 C.2    57  ILE57       0.2260
      4  O         22.4520   -1.5700   49.6270 O.2    57  ILE57      -0.2867
      5  CB        20.1210    0.0920   51.3540 C.3    57  ILE57       0.0252
      6  CG1       20.2930    1.2730   52.3190 C.3    57  ILE57       0.0019
      7  CG2       20.4250   -1.2410   52.0590 C.3    57  ILE57       0.0019
      8  CD1       19.1050    1.5310   53.2180 C.3    57  ILE57       0.0001
      9  N         24.4130   -0.5480   46.8900 N.3    60  GLN60      -0.1231
     10  CA        25.7030   -0.5470   47.5890 C.3    60  GLN60       0.1698
     11  C         26.0180   -1.9140   48.1940 C.2    60  GLN60       0.2592
     12  O         27.1740   -2.3350   48.2210 O.2    60  GLN60      -0.2718
     13  CB        25.7760    0.5690   48.6350 C.3    60  GLN60       0.0381
     14  CG        25.6710    1.9950   48.0580 C.3    60  GLN60       0.0905
     15  CD        26.6380    2.2860   46.8780 C.2    60  GLN60       0.2608
     16  OE1       27.8410    1.9860   46.9340 O.2    60  GLN60      -0.2717
     17  NE2       26.1020    2.8960   45.8190 N.am   60  GLN60      -0.0878
     18  N         24.9710   -2.6010   48.6520 N.am   61  GLN61      -0.1979
     19  CA        25.0240   -4.0140   49.0590 C.3    61  GLN61       0.1601
     20  C         25.6270   -4.8980   47.9620 C.2    61  GLN61       0.2287
     21  O         26.6160   -5.5890   48.1790 O.2    61  GLN61      -0.2864
     22  CB        23.6040   -4.5030   49.3850 C.3    61  GLN61       0.0394
     23  CG        23.4980   -5.8850   50.0290 C.3    61  GLN61       0.0908
     24  CD        23.8690   -5.8620   51.5010 C.2    61  GLN61       0.2608
     25  OE1       24.8940   -6.4250   51.9090 O.2    61  GLN61      -0.2717
     26  NE2       23.0480   -5.1840   52.3080 N.am   61  GLN61      -0.0878
     27  N         29.2820   -4.4650   47.2770 N.3    64  TYR64      -0.1241
     28  CA        30.0600   -5.0750   48.3340 C.3    64  TYR64       0.1605
     29  C         30.2250   -6.5850   48.1020 C.2    64  TYR64       0.2264
     30  O         31.3450   -7.1050   48.1840 O.2    64  TYR64      -0.2867
     31  CB        29.4140   -4.7820   49.6780 C.3    64  TYR64       0.0534
     32  CG        30.3410   -4.9890   50.8380 C.ar   64  TYR64      -0.0201
     33  CD1       31.5590   -4.3030   50.9090 C.ar   64  TYR64      -0.0009
     34  CD2       30.0060   -5.8680   51.8740 C.ar   64  TYR64      -0.0009
     35  CE1       32.4310   -4.4970   51.9820 C.ar   64  TYR64       0.0417
     36  CE2       30.8690   -6.0690   52.9570 C.ar   64  TYR64       0.0417
     37  CZ        32.0770   -5.3780   53.0030 C.ar   64  TYR64       0.1957
     38  OH        32.9290   -5.5610   54.0670 O.3    64  TYR64      -0.2866
     39  N         31.0710    6.3340   41.1570 N.3   144  TYR144     -0.1241
     40  CA        30.8590    7.3790   42.1580 C.3   144  TYR144      0.1605
     41  C         31.2180    8.7520   41.6120 C.2   144  TYR144      0.2264
     42  O         32.2600    8.9250   40.9900 O.2   144  TYR144     -0.2867
     43  CB        31.7120    7.1080   43.3930 C.3   144  TYR144      0.0534
     44  CG        31.4970    5.7550   44.0130 C.ar  144  TYR144     -0.0201
     45  CD1       30.8470    5.6240   45.2470 C.ar  144  TYR144     -0.0009
     46  CD2       31.9460    4.5980   43.3690 C.ar  144  TYR144     -0.0009
     47  CE1       30.6530    4.3840   45.8150 C.ar  144  TYR144      0.0417
     48  CE2       31.7530    3.3480   43.9220 C.ar  144  TYR144      0.0417
     49  CZ        31.1020    3.2440   45.1430 C.ar  144  TYR144      0.1957
     50  OH        30.9290    1.9860   45.6840 O.3   144  TYR144     -0.2866
     51  N         26.9360   12.6330   56.1940 N.3   182  ARG182     -0.1245
     52  CA        27.5810   11.4660   56.7600 C.3   182  ARG182      0.1563
     53  C         28.7760   11.8750   57.6180 C.2   182  ARG182      0.2260
     54  O         29.9150   11.5550   57.2880 O.2   182  ARG182     -0.2867
     55  CB        27.9960   10.5070   55.6420 C.3   182  ARG182      0.0307
     56  CG        26.8450    9.8430   54.8600 C.3   182  ARG182      0.0489
     57  CD        26.1580    8.7700   55.6770 C.3   182  ARG182      0.2205
     58  NE        25.3630    7.8750   54.8480 N.pl3 182  ARG182     -0.0865
     59  CZ        24.2910    7.2040   55.2750 C.cat 182  ARG182      0.5346
     60  NH1       23.6260    6.4060   54.4420 N.pl3 182  ARG182      0.1354
     61  NH2       23.8680    7.3310   56.5280 N.pl3 182  ARG182      0.1354
     62  N         31.9630    9.7350   58.6490 N.3   185  PHE185     -0.1241
     63  CA        33.0490    9.3780   57.7180 C.3   185  PHE185      0.1605
     64  C         33.9480   10.5590   57.3540 C.2   185  PHE185      0.2264
     65  O         34.5760   10.5690   56.2920 O.2   185  PHE185     -0.2867
     66  CB        32.5060    8.7260   56.4400 C.3   185  PHE185      0.0534
     67  CG        31.5570    7.5980   56.6940 C.ar  185  PHE185     -0.0203
     68  CD1       31.9590    6.4780   57.4210 C.ar  185  PHE185     -0.0042
     69  CD2       30.2500    7.6540   56.2090 C.ar  185  PHE185     -0.0042
     70  CE1       31.0670    5.4210   57.6700 C.ar  185  PHE185     -0.0003
     71  CE2       29.3500    6.6050   56.4560 C.ar  185  PHE185     -0.0003
     72  CZ        29.7610    5.4890   57.1870 C.ar  185  PHE185     -0.0000
     73  N         29.1990   11.6530   46.0140 N.3   231  ARG231     -0.1245
     74  CA        29.6930   12.1130   47.3100 C.3   231  ARG231      0.1563
     75  C         30.3610   13.4840   47.2090 C.2   231  ARG231      0.2260
     76  O         31.3630   13.6470   46.5140 O.2   231  ARG231     -0.2867
     77  CB        30.6440   11.0840   47.9220 C.3   231  ARG231      0.0307
     78  CG        31.3780   11.5650   49.1590 C.3   231  ARG231      0.0489
     79  CD        31.9260   10.4080   49.9860 C.3   231  ARG231      0.2205
     80  NE        30.8650    9.6610   50.6560 N.pl3 231  ARG231     -0.0865
     81  CZ        31.0470    8.5230   51.3220 C.cat 231  ARG231      0.5346
     82  NH1       30.0070    7.9180   51.8810 N.pl3 231  ARG231      0.1354
     83  NH2       32.2580    7.9800   51.4250 N.pl3 231  ARG231      0.1354
     84  N         39.3330    8.0910   50.7000 N.3   289  ASP289     -0.1239
     85  CA        38.0830    7.3490   50.6450 C.3   289  ASP289      0.1674
     86  C         38.2110    6.1610   49.7100 C.2   289  ASP289      0.2266
     87  O         37.7370    5.0720   50.0230 O.2   289  ASP289     -0.2867
     88  CB        36.9640    8.2580   50.1630 C.3   289  ASP289      0.1410
     89  CG        35.6620    8.0020   50.8640 C.2   289  ASP289      0.3668
     90  OD1       34.6190    8.1390   50.2050 O.co2 289  ASP289     -0.2456
     91  OD2       35.6600    7.6910   52.0720 O.co2 289  ASP289     -0.2456
     92  N         40.7660    3.6110   51.3770 N.3   292  ARG292     -0.1231
     93  CA        39.9740    3.0200   52.4530 C.3   292  ARG292      0.1694
     94  C         39.0300    1.9320   51.9300 C.2   292  ARG292      0.2591
     95  O         39.0380    0.8140   52.4430 O.2   292  ARG292     -0.2718
     96  CB        39.1940    4.1300   53.1690 C.3   292  ARG292      0.0321
     97  CG        38.4470    3.7400   54.4330 C.3   292  ARG292      0.0489
     98  CD        38.7410    4.7320   55.5880 C.3   292  ARG292      0.2205
     99  NE        37.7220    5.7620   55.8920 N.pl3 292  ARG292     -0.0865
    100  CZ        36.9550    6.4160   55.0170 C.cat 292  ARG292      0.5346
    101  NH1       36.0840    7.3320   55.4500 N.pl3 292  ARG292      0.1354
    102  NH2       37.0500    6.1690   53.7220 N.pl3 292  ARG292      0.1354
    103  N         38.2380    2.2570   50.9050 N.am  293  ARG293     -0.1980
    104  CA        37.2920    1.3150   50.3010 C.3   293  ARG293      0.1597
    105  C         37.9930    0.1070   49.6860 C.2   293  ARG293      0.2287
    106  O         37.4820   -1.0090   49.7730 O.2   293  ARG293     -0.2864
    107  CB        36.4370    2.0050   49.2420 C.3   293  ARG293      0.0334
    108  CG        35.2160    1.2110   48.8360 C.3   293  ARG293      0.0492
    109  CD        34.2820    2.0110   47.9280 C.3   293  ARG293      0.2205
    110  NE        33.5100    3.0430   48.6370 N.pl3 293  ARG293     -0.0865
    111  CZ        33.6820    4.3570   48.4930 C.cat 293  ARG293      0.5346
    112  NH1       32.9320    5.2050   49.1800 N.pl3 293  ARG293      0.1354
    113  NH2       34.6030    4.8330   47.6630 N.pl3 293  ARG293      0.1354
    114  N         39.1410   -2.4580   52.4430 N.3   296  SER296     -0.1217
    115  CA        38.0200   -3.1130   53.1040 C.3   296  SER296      0.1889
    116  C         37.0970   -3.7770   52.0890 C.2   296  SER296      0.2288
    117  O         35.8820   -3.5110   52.0660 O.2   296  SER296     -0.2866
    118  CB        37.2390   -2.1030   53.9470 C.3   296  SER296      0.2089
    119  OG        38.0000   -1.6910   55.0680 O.3   296  SER296     -0.2183
@<TRIPOS>BOND
     1    42    41    2
     2    39    40    1
     3    41    40    1
     4    40    43    1
     5    46    48   ar
     6    46    44   ar
     7    43    44    1
     8    48    49   ar
     9    44    45   ar
    10    49    50    1
    11    49    47   ar
    12    45    47   ar
    13    17    15   am
    14    73    74    1
    15    76    75    2
    16    15    16    2
    17    15    14    1
    18     9    10    1
    19    75    74    1
    20    27    28    1
    21    74    77    1
    22    10    11    1
    23    10    13    1
    24   113   111    1
    25    77    78    1
    26   109   110    1
    27   109   108    1
    28    20    21    2
    29    20    19    1
    30    14    13    1
    31    29    30    2
    32    29    28    1
    33    11    12    2
    34    11    18   am
    35    28    31    1
    36   111   110    2
    37   111   112    1
    38    18    19    1
    39   108   107    1
    40    19    22    1
    41    78    79    1
    42     1     2    1
    43   107   104    1
    44    22    23    1
    45     3     4    2
    46     3     2    1
    47    31    32    1
    48   105   106    2
    49   105   104    1
    50    86    87    2
    51    86    85    1
    52    79    80    1
    53    23    24    1
    54     2     5    1
    55    88    85    1
    56    88    89    1
    57    90    89   ar
    58   104   103    1
    59    85    84    1
    60    80    81    2
    61    32    33   ar
    62    32    34   ar
    63    89    91   ar
    64   103    94   am
    65    33    35   ar
    66    81    83    1
    67    81    82    1
    68     5     7    1
    69     5     6    1
    70    92    93    1
    71    24    25    2
    72    24    26   am
    73    34    36   ar
    74    94    95    2
    75    94    93    1
    76    35    37   ar
    77   117   116    2
    78   116   115    1
    79     6     8    1
    80   114   115    1
    81    93    96    1
    82    36    37   ar
    83    37    38    1
    84   115   118    1
    85    96    97    1
    86   102   100    1
    87   118   119    1
    88    97    98    1
    89    60    59    1
    90    58    59    2
    91    58    57    1
    92    56    55    1
    93    56    57    1
    94   100   101    1
    95   100    99    2
    96    59    61    1
    97    98    99    1
    98    55    52    1
    99    51    52    1
   100    69    71   ar
   101    69    67   ar
   102    65    64    2
   103    66    67    1
   104    66    63    1
   105    71    72   ar
   106    67    68   ar
   107    52    53    1
   108    72    70   ar
   109    54    53    2
   110    64    63    1
   111    68    70   ar
   112    63    62    1
