@<TRIPOS>MOLECULE
tmp/2qn6A00.pdb
 134 133 0 0 0
SMALL
GASTEIGER

@<TRIPOS>ATOM
      1  N         -8.4010  -18.0460  -12.0960 N.3    16  HIS16      -0.1226
      2  CA        -7.1500  -18.7430  -12.3670 C.3    16  HIS16       0.1752
      3  C         -7.3580  -20.0020  -13.2080 C.2    16  HIS16       0.2596
      4  O         -8.3770  -20.6790  -13.0860 O.2    16  HIS16      -0.2718
      5  CB        -6.4620  -19.0890  -11.0400 C.3    16  HIS16       0.0759
      6  CG        -4.9830  -19.3000  -11.1610 C.ar   16  HIS16       0.0818
      7  ND1       -4.4310  -20.4850  -11.6020 N.ar   16  HIS16      -0.2268
      8  CD2       -3.9420  -18.4690  -10.9140 C.ar   16  HIS16       0.1154
      9  CE1       -3.1150  -20.3720  -11.6200 C.ar   16  HIS16       0.1986
     10  NE2       -2.7930  -19.1580  -11.2070 N.ar   16  HIS16      -0.2212
     11  N         -6.3810  -20.3060  -14.0610 N.am   17  VAL17      -0.1966
     12  CA        -6.4430  -21.4770  -14.9300 C.3    17  VAL17       0.1727
     13  C         -6.6140  -22.7750  -14.1380 C.2    17  VAL17       0.2616
     14  O         -6.0680  -22.9270  -13.0390 O.2    17  VAL17      -0.2715
     15  CB        -5.1740  -21.5750  -15.8230 C.3    17  VAL17       0.0290
     16  CG1       -3.9230  -21.6260  -14.9540 C.3    17  VAL17       0.0023
     17  CG2       -5.2580  -22.8030  -16.7270 C.3    17  VAL17       0.0023
     18  N         -7.3880  -23.6960  -14.7100 N.am   18  ASP18      -0.1957
     19  CA        -7.6930  -24.9940  -14.1070 C.3    18  ASP18       0.1840
     20  C         -8.7260  -24.9810  -12.9800 C.2    18  ASP18       0.2622
     21  O         -8.9980  -26.0150  -12.3770 O.2    18  ASP18      -0.2715
     22  CB        -6.4070  -25.6770  -13.6250 C.3    18  ASP18       0.1450
     23  CG        -5.6790  -26.3850  -14.7510 C.2    18  ASP18       0.3671
     24  OD1       -6.2640  -27.3300  -15.3280 O.co2  18  ASP18      -0.2456
     25  OD2       -4.5350  -25.9930  -15.0670 O.co2  18  ASP18      -0.2456
     26  N         -9.3220  -23.8250  -12.7040 N.am   19  HIS19      -0.1959
     27  CA       -10.3180  -23.7490  -11.6340 C.3    19  HIS19       0.1787
     28  C        -11.7350  -24.1870  -12.0080 C.2    19  HIS19       0.2621
     29  O        -12.6210  -24.2350  -11.1490 O.2    19  HIS19      -0.2715
     30  CB       -10.3320  -22.3450  -11.0220 C.3    19  HIS19       0.0785
     31  CG        -9.1410  -22.0670  -10.1550 C.ar   19  HIS19       0.0821
     32  ND1       -9.1460  -21.1170   -9.1540 N.ar   19  HIS19      -0.2267
     33  CD2       -7.9170  -22.6500  -10.1130 C.ar   19  HIS19       0.1154
     34  CE1       -7.9810  -21.1330   -8.5300 C.ar   19  HIS19       0.1986
     35  NE2       -7.2180  -22.0540   -9.0920 N.ar   19  HIS19      -0.2212
     36  N        -11.9480  -24.5150  -13.2790 N.am   20  GLY20      -0.1940
     37  CA       -13.2620  -24.9800  -13.7100 C.3    20  GLY20       0.2014
     38  C        -14.1540  -24.0670  -14.5460 C.2    20  GLY20       0.2639
     39  O        -15.3590  -24.3100  -14.6420 O.2    20  GLY20      -0.2714
     40  N        -13.5790  -23.0340  -15.1570 N.am   21  LYS21      -0.1963
     41  CA       -14.3520  -22.0990  -15.9730 C.3    21  LYS21       0.1728
     42  C        -15.0280  -22.7560  -17.1840 C.2    21  LYS21       0.2617
     43  O        -16.2220  -22.5540  -17.4300 O.2    21  LYS21      -0.2715
     44  CB       -13.4570  -20.9350  -16.4260 C.3    21  LYS21       0.0311
     45  CG       -12.9190  -20.0880  -15.2590 C.3    21  LYS21       0.0038
     46  CD       -12.1470  -18.8450  -15.7140 C.3    21  LYS21       0.0206
     47  CE       -10.7560  -19.1670  -16.2590 C.3    21  LYS21       0.1093
     48  NZ       -10.7840  -19.9340  -17.5300 N.3    21  LYS21      -0.1314
     49  N        -14.2860  -23.5570  -17.9390 N.am   22  THR22      -0.1937
     50  CA       -14.8850  -24.2000  -19.1030 C.3    22  THR22       0.2028
     51  C        -15.9360  -25.2390  -18.7060 C.2    22  THR22       0.2642
     52  O        -17.0080  -25.3100  -19.3060 O.2    22  THR22      -0.2714
     53  CB       -13.8150  -24.8520  -19.9840 C.3    22  THR22       0.1808
     54  OG1      -12.8580  -23.8540  -20.3630 O.3    22  THR22      -0.2208
     55  CG2      -14.4470  -25.4440  -21.2500 C.3    22  THR22       0.0379
     56  N        -15.6350  -26.0410  -17.6930 N.am   23  THR23      -0.1950
     57  CA       -16.5840  -27.0440  -17.2500 C.3    23  THR23       0.1897
     58  C        -17.8430  -26.3130  -16.8060 C.2    23  THR23       0.2313
     59  O        -18.9580  -26.6910  -17.1770 O.2    23  THR23      -0.2863
     60  CB       -16.0350  -27.8550  -16.0680 C.3    23  THR23       0.1794
     61  OG1      -14.6550  -28.1580  -16.3030 O.3    23  THR23      -0.2208
     62  CG2      -16.8100  -29.1730  -15.9200 C.3    23  THR23       0.0378
     63  N        -19.3160  -27.2390  -24.7420 N.3    32  TRP32      -0.1241
     64  CA       -17.9000  -27.2420  -24.3840 C.3    32  TRP32       0.1605
     65  C        -17.1330  -26.1870  -25.1630 C.2    32  TRP32       0.2264
     66  O        -17.2630  -26.0650  -26.3840 O.2    32  TRP32      -0.2867
     67  CB       -17.2620  -28.6100  -24.6390 C.3    32  TRP32       0.0550
     68  CG       -17.5810  -29.6290  -23.5820 C.ar   32  TRP32       0.0003
     69  CD1      -18.4140  -30.7020  -23.6970 C.ar   32  TRP32       0.0946
     70  CD2      -17.0850  -29.6470  -22.2330 C.ar   32  TRP32       0.0152
     71  NE1      -18.4680  -31.3860  -22.5060 N.ar   32  TRP32      -0.2442
     72  CE2      -17.6630  -30.7620  -21.5900 C.ar   32  TRP32       0.0810
     73  CE3      -16.2110  -28.8260  -21.5080 C.ar   32  TRP32       0.0012
     74  CZ2      -17.3960  -31.0820  -20.2540 C.ar   32  TRP32       0.0191
     75  CZ3      -15.9450  -29.1400  -20.1820 C.ar   32  TRP32       0.0001
     76  CH2      -16.5370  -30.2610  -19.5680 C.ar   32  TRP32       0.0015
     77  N         -9.2490  -20.0740  -23.1990 N.3    80  PRO80      -0.2116
     78  CA        -8.3450  -21.0610  -22.6030 C.3    80  PRO80       0.1372
     79  C         -7.0840  -20.3870  -22.0780 C.2    80  PRO80       0.2244
     80  O         -6.4790  -20.8390  -21.1080 O.2    80  PRO80      -0.2868
     81  CB        -8.0560  -21.9970  -23.7660 C.3    80  PRO80       0.0268
     82  CG        -8.0280  -21.0560  -24.9220 C.3    80  PRO80       0.0207
     83  CD        -9.2370  -20.1840  -24.6700 C.3    80  PRO80       0.0892
     84  N        -15.9000  -22.9970   -6.8160 N.3   134  ASN134     -0.1225
     85  CA       -16.0400  -24.2700   -7.5110 C.3   134  ASN134      0.1785
     86  C        -15.2240  -25.4260   -6.9290 C.2   134  ASN134      0.2597
     87  O        -14.3380  -25.2320   -6.0890 O.2   134  ASN134     -0.2718
     88  CB       -15.6640  -24.0700   -8.9820 C.3   134  ASN134      0.1169
     89  CG       -16.0540  -25.2400   -9.8490 C.2   134  ASN134      0.2627
     90  OD1      -17.1930  -25.7010   -9.8100 O.2   134  ASN134     -0.2716
     91  ND2      -15.1120  -25.7210  -10.6540 N.am  134  ASN134     -0.0877
     92  N        -15.5370  -26.6340   -7.3950 N.am  135  LYS135     -0.1980
     93  CA       -14.8450  -27.8390   -6.9560 C.3   135  LYS135      0.1596
     94  C        -14.9380  -27.9950   -5.4410 C.2   135  LYS135      0.2287
     95  O        -13.9740  -28.3780   -4.7810 O.2   135  LYS135     -0.2864
     96  CB       -13.3780  -27.7830   -7.4070 C.3   135  LYS135      0.0298
     97  CG       -13.2090  -27.1570   -8.7800 C.3   135  LYS135      0.0038
     98  CD       -12.0500  -27.7330   -9.5700 C.3   135  LYS135      0.0206
     99  CE       -10.6950  -27.3370   -9.0340 C.3   135  LYS135      0.1093
    100  NZ        -9.6460  -27.7750  -10.0050 N.3   135  LYS135     -0.1314
    101  N        -16.7630  -30.0880   -4.1050 N.3   137  ASP137     -0.1225
    102  CA       -16.9150  -31.5220   -3.9130 C.3   137  ASP137      0.1805
    103  C        -15.6440  -32.1790   -3.3650 C.2   137  ASP137      0.2597
    104  O        -15.7130  -33.1940   -2.6750 O.2   137  ASP137     -0.2718
    105  CB       -17.3380  -32.1910   -5.2350 C.3   137  ASP137      0.1424
    106  CG       -16.4880  -31.7520   -6.4270 C.2   137  ASP137      0.3668
    107  OD1      -16.7570  -32.2270   -7.5510 O.co2 137  ASP137     -0.2456
    108  OD2      -15.5590  -30.9350   -6.2530 O.co2 137  ASP137     -0.2456
    109  N        -14.4900  -31.5900   -3.6520 N.am  138  VAL138     -0.1980
    110  CA       -13.2260  -32.1450   -3.1900 C.3   138  VAL138      0.1595
    111  C        -12.6370  -31.4370   -1.9710 C.2   138  VAL138      0.2287
    112  O        -11.4150  -31.3730   -1.8170 O.2   138  VAL138     -0.2864
    113  CB       -12.1730  -32.1320   -4.3130 C.3   138  VAL138      0.0276
    114  CG1      -12.6020  -33.0510   -5.4410 C.3   138  VAL138      0.0022
    115  CG2      -11.9850  -30.7210   -4.8260 C.3   138  VAL138      0.0022
    116  N        -20.6430  -27.2460   -8.0660 N.3   169  SER169     -0.1202
    117  CA       -19.7620  -28.3220   -8.4880 C.3   169  SER169      0.2020
    118  C        -19.9520  -28.4900   -9.9800 C.2   169  SER169      0.2619
    119  O        -20.7220  -29.3350  -10.4210 O.2   169  SER169     -0.2717
    120  CB       -20.0950  -29.6380   -7.7870 C.3   169  SER169      0.2103
    121  OG       -19.3210  -30.6920   -8.3430 O.3   169  SER169     -0.2182
    122  N        -19.2520  -27.6690  -10.7520 N.am  170  ALA170     -0.1965
    123  CA       -19.3380  -27.7320  -12.2010 C.3   170  ALA170      0.1728
    124  C        -19.2700  -29.1790  -12.6900 C.2   170  ALA170      0.2616
    125  O        -20.0840  -29.6000  -13.5080 O.2   170  ALA170     -0.2715
    126  CB       -18.2110  -26.9180  -12.8180 C.3   170  ALA170      0.0334
    127  N        -18.3040  -29.9330  -12.1660 N.am  171  LEU171     -0.1977
    128  CA       -18.1020  -31.3300  -12.5470 C.3   171  LEU171      0.1596
    129  C        -19.3520  -32.1940  -12.3850 C.2   171  LEU171      0.2287
    130  O        -19.7540  -32.8970  -13.3090 O.2   171  LEU171     -0.2864
    131  CB       -16.9630  -31.9360  -11.7230 C.3   171  LEU171      0.0297
    132  CG       -16.4910  -33.3560  -12.0570 C.3   171  LEU171      0.0022
    133  CD1      -15.9780  -33.4220  -13.4970 C.3   171  LEU171      0.0001
    134  CD2      -15.3840  -33.7570  -11.0890 C.3   171  LEU171      0.0001
@<TRIPOS>BOND
     1    66    65    2
     2    65    64    1
     3    82    83    1
     4    82    81    1
     5    63    64    1
     6    83    77    1
     7    67    64    1
     8    67    68    1
     9    81    78    1
    10    69    68   ar
    11    69    71   ar
    12    68    70   ar
    13    77    78    1
    14    78    79    1
    15    71    72   ar
    16    70    72   ar
    17    70    73   ar
    18    79    80    2
    19    72    74   ar
    20    73    75   ar
    21    55    53    1
    22    54    53    1
    23    74    76   ar
    24    75    76   ar
    25    53    50    1
    26    52    51    2
    27    50    51    1
    28    50    49    1
    29    51    56   am
    30    49    42   am
    31    56    57    1
    32    48    47    1
    33    43    42    2
    34    57    58    1
    35    57    60    1
    36    42    41    1
    37    59    58    2
    38    17    15    1
    39    44    41    1
    40    44    45    1
    41    61    60    1
    42    47    46    1
    43    60    62    1
    44    41    40    1
    45    15    16    1
    46    15    12    1
    47    46    45    1
    48    24    23   ar
    49    40    38   am
    50    25    23   ar
    51    12    13    1
    52    12    11    1
    53    23    22    1
    54    18    13   am
    55    18    19    1
    56    39    38    2
    57    38    37    1
    58    13    14    2
    59    19    22    1
    60    19    20    1
    61    11     3   am
    62    37    36    1
    63   125   124    2
    64   133   132    1
    65   130   129    2
    66    36    28   am
    67     3     4    2
    68     3     2    1
    69    20    26   am
    70    20    21    2
    71   126   123    1
    72    26    27    1
    73   124   123    1
    74   124   127   am
    75   128   129    1
    76   128   127    1
    77   128   131    1
    78     2     1    1
    79     2     5    1
    80   123   122    1
    81   132   131    1
    82   132   134    1
    83    28    27    1
    84    28    29    2
    85    27    30    1
    86     9     7   ar
    87     9    10   ar
    88     7     6   ar
    89    10     8   ar
    90     6     5    1
    91     6     8   ar
    92    30    31    1
    93   122   118   am
    94    91    89   am
    95   119   118    2
    96    31    33   ar
    97    31    32   ar
    98    33    35   ar
    99   100    99    1
   100   118   117    1
   101    89    90    2
   102    89    88    1
   103    98    99    1
   104    98    97    1
   105    32    34   ar
   106    35    34   ar
   107    88    85    1
   108    97    96    1
   109   117   116    1
   110   117   120    1
   111   121   120    1
   112   107   106   ar
   113    85    86    1
   114    85    84    1
   115    96    93    1
   116    92    93    1
   117    92    86   am
   118    93    94    1
   119    86    87    2
   120   106   108   ar
   121   106   105    1
   122   114   113    1
   123    94    95    2
   124   105   102    1
   125   115   113    1
   126   113   110    1
   127   101   102    1
   128   102   103    1
   129   109   103   am
   130   109   110    1
   131   103   104    2
   132   110   111    1
   133   111   112    2
