@<TRIPOS>MOLECULE
tmp/2qn8A02.pdb
 226 217 0 0 0
SMALL
GASTEIGER

@<TRIPOS>ATOM
      1  N         33.0940   20.1490   39.2630 N.3    77  GLU77      -0.1245
      2  CA        31.7530   20.6010   38.8900 C.3    77  GLU77       0.1567
      3  C         30.7660   19.4720   38.5830 C.2    77  GLU77       0.2260
      4  O         31.1050   18.4930   37.9150 O.2    77  GLU77      -0.2867
      5  CB        31.8160   21.5240   37.6570 C.3    77  GLU77       0.0388
      6  CG        32.7240   22.7530   37.7960 C.3    77  GLU77       0.1160
      7  CD        32.6090   23.7170   36.6220 C.2    77  GLU77       0.3649
      8  OE1       33.4660   24.6170   36.5040 O.co2  77  GLU77      -0.2457
      9  OE2       31.6600   23.5950   35.8150 O.co2  77  GLU77      -0.2457
     10  N         29.5720   25.4350   35.9040 N.3   122  ASN122     -0.1225
     11  CA        29.5540   26.6370   35.0770 C.3   122  ASN122      0.1785
     12  C         28.7980   26.4420   33.7740 C.2   122  ASN122      0.2598
     13  O         28.0470   27.3190   33.3400 O.2   122  ASN122     -0.2718
     14  CB        30.9860   27.0610   34.7500 C.3   122  ASN122      0.1169
     15  CG        31.6290   27.8510   35.8750 C.2   122  ASN122      0.2627
     16  OD1       31.1970   28.9590   36.1850 O.2   122  ASN122     -0.2716
     17  ND2       32.6570   27.2830   36.4930 N.am  122  ASN122     -0.0877
     18  N         29.0160   25.2960   33.1420 N.am  123  GLY123     -0.1942
     19  CA        28.3570   25.0380   31.8790 C.3   123  GLY123      0.2014
     20  C         28.5760   23.6350   31.3560 C.2   123  GLY123      0.2639
     21  O         28.2960   22.6630   32.0520 O.2   123  GLY123     -0.2714
     22  N         29.0910   23.5410   30.1320 N.am  124  GLY124     -0.1939
     23  CA        29.3130   22.2550   29.4890 C.3   124  GLY124      0.2014
     24  C         30.0710   21.1810   30.2420 C.2   124  GLY124      0.2638
     25  O         29.6470   20.0240   30.2820 O.2   124  GLY124     -0.2714
     26  N         31.2050   21.5520   30.8240 N.am  125  LEU125     -0.1977
     27  CA        32.0350   20.6100   31.5680 C.3   125  LEU125      0.1596
     28  C         31.2950   20.0510   32.7870 C.2   125  LEU125      0.2287
     29  O         31.3300   18.8440   33.0520 O.2   125  LEU125     -0.2864
     30  CB        33.3370   21.3150   31.9810 C.3   125  LEU125      0.0297
     31  CG        34.3830   20.6250   32.8600 C.3   125  LEU125      0.0022
     32  CD1       35.7470   21.2750   32.6240 C.3   125  LEU125      0.0001
     33  CD2       33.9680   20.7340   34.3210 C.3   125  LEU125      0.0001
     34  N         28.3110   17.8290   31.6520 N.3   128  LEU128     -0.1245
     35  CA        28.7680   16.5570   31.0980 C.3   128  LEU128      0.1561
     36  C         28.9040   15.5500   32.2360 C.2   128  LEU128      0.2260
     37  O         28.5210   14.3890   32.1060 O.2   128  LEU128     -0.2867
     38  CB        30.1260   16.7240   30.4020 C.3   128  LEU128      0.0270
     39  CG        30.6070   15.4660   29.6580 C.3   128  LEU128      0.0019
     40  CD1       29.7640   15.2750   28.4040 C.3   128  LEU128      0.0001
     41  CD2       32.0780   15.5970   29.2860 C.3   128  LEU128      0.0001
     42  N         33.9630   28.6350   41.8190 N.3   262  TYR262     -0.1241
     43  CA        34.6160   29.6850   41.0410 C.3   262  TYR262      0.1605
     44  C         33.8760   29.7360   39.7040 C.2   262  TYR262      0.2264
     45  O         33.7750   28.7270   38.9990 O.2   262  TYR262     -0.2867
     46  CB        36.0910   29.3630   40.8180 C.3   262  TYR262      0.0534
     47  CG        36.9690   29.8820   41.9270 C.ar  262  TYR262     -0.0201
     48  CD1       37.0110   29.2510   43.1700 C.ar  262  TYR262     -0.0009
     49  CD2       37.7080   31.0480   41.7520 C.ar  262  TYR262     -0.0009
     50  CE1       37.7720   29.7780   44.2180 C.ar  262  TYR262      0.0417
     51  CE2       38.4630   31.5830   42.7840 C.ar  262  TYR262      0.0417
     52  CZ        38.4920   30.9500   44.0090 C.ar  262  TYR262      0.1957
     53  OH        39.2280   31.5110   45.0280 O.3   262  TYR262     -0.2866
     54  N         34.7080   31.5810   36.9320 N.3   264  ASN264     -0.1225
     55  CA        35.5130   31.9560   35.7730 C.3   264  ASN264      0.1785
     56  C         35.7160   30.7440   34.8760 C.2   264  ASN264      0.2597
     57  O         36.5060   29.8530   35.1900 O.2   264  ASN264     -0.2718
     58  CB        36.8760   32.5200   36.2060 C.3   264  ASN264      0.1169
     59  CG        37.6280   31.5870   37.1350 C.2   264  ASN264      0.2627
     60  OD1       37.1230   31.2220   38.1970 O.2   264  ASN264     -0.2716
     61  ND2       38.8410   31.1970   36.7430 N.am  264  ASN264     -0.0877
     62  N         34.9930   30.7160   33.7610 N.am  265  ASP265     -0.1960
     63  CA        35.0970   29.6150   32.8170 C.3   265  ASP265      0.1840
     64  C         35.7740   30.0900   31.5330 C.2   265  ASP265      0.2622
     65  O         35.7520   29.4020   30.5190 O.2   265  ASP265     -0.2715
     66  CB        33.7010   29.0630   32.5090 C.3   265  ASP265      0.1450
     67  CG        32.8550   30.0230   31.6870 C.2   265  ASP265      0.3671
     68  OD1       33.0000   31.2550   31.8420 O.co2 265  ASP265     -0.2456
     69  OD2       32.0300   29.5390   30.8870 O.co2 265  ASP265     -0.2456
     70  N         36.3870   31.2680   31.5860 N.am  266  ASN266     -0.1958
     71  CA        37.0530   31.8310   30.4180 C.3   266  ASN266      0.1819
     72  C         38.5620   31.9650   30.5810 C.2   266  ASN266      0.2621
     73  O         39.3240   31.7130   29.6470 O.2   266  ASN266     -0.2715
     74  CB        36.4750   33.2160   30.1090 C.3   266  ASN266      0.1195
     75  CG        36.7850   34.2350   31.1990 C.2   266  ASN266      0.2630
     76  OD1       36.4540   34.0320   32.3690 O.2   266  ASN266     -0.2716
     77  ND2       37.4240   35.3380   30.8170 N.am  266  ASN266     -0.0877
     78  N         38.9880   32.3490   31.7760 N.am  267  PHE267     -0.1960
     79  CA        40.3980   32.5850   32.0430 C.3   267  PHE267      0.1771
     80  C         40.8130   31.9270   33.3560 C.2   267  PHE267      0.2619
     81  O         40.1530   32.1020   34.3800 O.2   267  PHE267     -0.2715
     82  CB        40.6070   34.1040   32.1230 C.3   267  PHE267      0.0574
     83  CG        42.0410   34.5430   32.0700 C.ar  267  PHE267     -0.0200
     84  CD1       42.7550   34.4910   30.8790 C.ar  267  PHE267     -0.0042
     85  CD2       42.6640   35.0600   33.2020 C.ar  267  PHE267     -0.0042
     86  CE1       44.0730   34.9530   30.8120 C.ar  267  PHE267     -0.0003
     87  CE2       43.9800   35.5240   33.1480 C.ar  267  PHE267     -0.0003
     88  CZ        44.6840   35.4710   31.9500 C.ar  267  PHE267     -0.0000
     89  N         41.9000   31.1650   33.3240 N.am  268  PHE268     -0.1974
     90  CA        42.3950   30.5190   34.5330 C.3   268  PHE268      0.1639
     91  C         42.9970   31.5770   35.4510 C.2   268  PHE268      0.2290
     92  O         43.7220   32.4600   34.9960 O.2   268  PHE268     -0.2864
     93  CB        43.4730   29.4770   34.1990 C.3   268  PHE268      0.0560
     94  CG        44.2830   29.0380   35.3970 C.ar  268  PHE268     -0.0200
     95  CD1       45.6030   29.4610   35.5590 C.ar  268  PHE268     -0.0042
     96  CD2       43.7180   28.2270   36.3750 C.ar  268  PHE268     -0.0042
     97  CE1       46.3450   29.0800   36.6810 C.ar  268  PHE268     -0.0003
     98  CE2       44.4510   27.8410   37.4990 C.ar  268  PHE268     -0.0003
     99  CZ        45.7680   28.2690   37.6520 C.ar  268  PHE268     -0.0000
    100  N         41.2480   28.4430   45.2530 N.3   274  ARG274     -0.1245
    101  CA        40.8980   27.4550   44.2330 C.3   274  ARG274      0.1563
    102  C         41.8490   26.2580   44.2970 C.2   274  ARG274      0.2260
    103  O         41.4350   25.1140   44.1090 O.2   274  ARG274     -0.2867
    104  CB        40.9420   28.0920   42.8390 C.3   274  ARG274      0.0307
    105  CG        40.8680   27.0980   41.6810 C.3   274  ARG274      0.0489
    106  CD        39.5000   26.4260   41.5510 C.3   274  ARG274      0.2205
    107  NE        39.4390   25.6700   40.2990 N.pl3 274  ARG274     -0.0865
    108  CZ        38.3190   25.2600   39.7090 C.cat 274  ARG274      0.5346
    109  NH1       37.1370   25.5210   40.2480 N.pl3 274  ARG274      0.1354
    110  NH2       38.3870   24.6070   38.5570 N.pl3 274  ARG274      0.1354
    111  N         39.0610   17.2570   33.1970 N.3   312  ASP312     -0.1239
    112  CA        39.9400   18.4060   32.9840 C.3   312  ASP312      0.1674
    113  C         41.1050   18.2460   33.9640 C.2   312  ASP312      0.2266
    114  O         41.2280   17.2040   34.6040 O.2   312  ASP312     -0.2867
    115  CB        39.2040   19.7250   33.2270 C.3   312  ASP312      0.1410
    116  CG        39.7400   20.8580   32.3680 C.2   312  ASP312      0.3668
    117  OD1       38.9140   21.6310   31.8410 O.co2 312  ASP312     -0.2456
    118  OD2       40.9780   20.9850   32.2250 O.co2 312  ASP312     -0.2456
    119  N         41.5760   20.0800   36.6440 N.3   314  HIS314     -0.1241
    120  CA        41.1820   20.5480   37.9690 C.3   314  HIS314      0.1621
    121  C         41.5300   19.5750   39.0970 C.2   314  HIS314      0.2264
    122  O         41.9530   20.0040   40.1670 O.2   314  HIS314     -0.2867
    123  CB        39.6900   20.8910   37.9640 C.3   314  HIS314      0.0745
    124  CG        39.3030   21.8070   36.8450 C.ar  314  HIS314      0.0817
    125  ND1       38.0070   21.9380   36.4000 N.ar  314  HIS314     -0.2268
    126  CD2       40.0560   22.6160   36.0610 C.ar  314  HIS314      0.1154
    127  CE1       37.9770   22.7870   35.3880 C.ar  314  HIS314      0.1986
    128  NE2       39.2060   23.2120   35.1620 N.ar  314  HIS314     -0.2212
    129  N         39.1540   19.5420   27.7050 N.3   350  HIS350     -0.1226
    130  CA        37.9560   20.2230   27.2170 C.3   350  HIS350      0.1752
    131  C         38.1610   21.4980   26.3920 C.2   350  HIS350      0.2596
    132  O         37.1860   22.1320   25.9920 O.2   350  HIS350     -0.2718
    133  CB        37.0440   20.5490   28.4000 C.3   350  HIS350      0.0759
    134  CG        36.6210   19.3480   29.1840 C.ar  350  HIS350      0.0818
    135  ND1       35.5260   18.5820   28.8440 N.ar  350  HIS350     -0.2268
    136  CD2       37.1600   18.7680   30.2820 C.ar  350  HIS350      0.1154
    137  CE1       35.4060   17.5850   29.7010 C.ar  350  HIS350      0.1986
    138  NE2       36.3850   17.6740   30.5840 N.ar  350  HIS350     -0.2212
    139  N         39.4040   21.8960   26.1440 N.am  351  THR351     -0.1953
    140  CA        39.6350   23.1020   25.3450 C.3   351  THR351      0.1897
    141  C         41.0860   23.2210   24.9060 C.2   351  THR351      0.2313
    142  O         41.9750   22.6510   25.5340 O.2   351  THR351     -0.2863
    143  CB        39.2550   24.3900   26.1220 C.3   351  THR351      0.1794
    144  OG1       39.4430   25.5350   25.2750 O.3   351  THR351     -0.2208
    145  CG2       40.1190   24.5470   27.3590 C.3   351  THR351      0.0378
    146  N         42.7570   29.1940   29.2490 N.3   356  ALA356     -0.1245
    147  CA        41.9470   28.3270   30.1060 C.3   356  ALA356      0.1562
    148  C         42.7470   27.1970   30.7500 C.2   356  ALA356      0.2260
    149  O         42.2680   26.5390   31.6730 O.2   356  ALA356     -0.2867
    150  CB        40.7890   27.7460   29.2980 C.3   356  ALA356      0.0290
    151  N         45.3830   25.3180   33.1000 N.3   358  GLU358     -0.1245
    152  CA        45.9100   25.5440   34.4400 C.3   358  GLU358      0.1567
    153  C         47.4300   25.4790   34.5040 C.2   358  GLU358      0.2260
    154  O         48.0320   24.4640   34.1580 O.2   358  GLU358     -0.2867
    155  CB        45.3490   24.5150   35.4280 C.3   358  GLU358      0.0388
    156  CG        43.8620   24.6540   35.7280 C.3   358  GLU358      0.1160
    157  CD        43.4380   23.8140   36.9110 C.2   358  GLU358      0.3649
    158  OE1       43.5010   22.5670   36.8200 O.co2 358  GLU358     -0.2457
    159  OE2       43.0440   24.4020   37.9410 O.co2 358  GLU358     -0.2457
    160  N         37.0760   15.5320   23.3020 N.3   428  VAL428     -0.1245
    161  CA        35.6400   15.3020   23.4340 C.3   428  VAL428      0.1561
    162  C         34.8100   15.3750   22.1560 C.2   428  VAL428      0.2260
    163  O         33.5830   15.4230   22.2040 O.2   428  VAL428     -0.2867
    164  CB        35.0730   16.2610   24.4950 C.3   428  VAL428      0.0252
    165  CG1       35.6250   15.8730   25.8750 C.3   428  VAL428      0.0019
    166  CG2       35.4770   17.6980   24.1690 C.3   428  VAL428      0.0019
    167  N         31.4170   13.6350   22.9880 N.3   457  ASN457     -0.1240
    168  CA        30.4370   13.9060   24.0380 C.3   457  ASN457      0.1653
    169  C         29.0320   13.4370   23.6850 C.2   457  ASN457      0.2266
    170  O         28.7430   13.0800   22.5400 O.2   457  ASN457     -0.2867
    171  CB        30.4080   15.4110   24.3550 C.3   457  ASN457      0.1155
    172  CG        31.5680   15.8520   25.2460 C.2   457  ASN457      0.2627
    173  OD1       31.8350   17.0530   25.3970 O.2   457  ASN457     -0.2716
    174  ND2       32.2520   14.8900   25.8450 N.am  457  ASN457     -0.0877
    175  N         34.6650   33.5170   21.9340 N.3   546  TYR546     -0.1227
    176  CA        34.8120   32.4390   20.9600 C.3   546  TYR546      0.1736
    177  C         33.4860   31.8200   20.5200 C.2   546  TYR546      0.2595
    178  O         33.3960   31.2770   19.4160 O.2   546  TYR546     -0.2718
    179  CB        35.7870   31.3620   21.4780 C.3   546  TYR546      0.0548
    180  CG        35.1990   30.2700   22.3480 C.ar  546  TYR546     -0.0200
    181  CD1       34.6180   29.1320   21.7780 C.ar  546  TYR546     -0.0009
    182  CD2       35.2690   30.3480   23.7400 C.ar  546  TYR546     -0.0009
    183  CE1       34.1310   28.0990   22.5740 C.ar  546  TYR546      0.0417
    184  CE2       34.7820   29.3210   24.5450 C.ar  546  TYR546      0.0417
    185  CZ        34.2180   28.2000   23.9570 C.ar  546  TYR546      0.1957
    186  OH        33.7510   27.1680   24.7410 O.3   546  TYR546     -0.2866
    187  N         32.4590   31.9100   21.3630 N.am  547  LYS547     -0.1980
    188  CA        31.1490   31.3560   21.0150 C.3   547  LYS547      0.1596
    189  C         30.4180   32.3050   20.0690 C.2   547  LYS547      0.2287
    190  O         29.4020   31.9540   19.4660 O.2   547  LYS547     -0.2864
    191  CB        30.3170   31.1010   22.2750 C.3   547  LYS547      0.0298
    192  CG        30.8440   29.9470   23.1220 C.3   547  LYS547      0.0038
    193  CD        30.0620   29.8030   24.4240 C.3   547  LYS547      0.0206
    194  CE        30.6800   28.7530   25.3500 C.3   547  LYS547      0.1093
    195  NZ        30.4900   27.3530   24.8710 N.3   547  LYS547     -0.1314
    196  N         35.4830   25.5680   19.8170 N.3   645  GLU645     -0.1231
    197  CA        34.5400   24.8560   20.6870 C.3   645  GLU645      0.1699
    198  C         34.9160   23.3760   20.6250 C.2   645  GLU645      0.2592
    199  O         34.6570   22.7140   19.6190 O.2   645  GLU645     -0.2718
    200  CB        33.1020   25.0570   20.1910 C.3   645  GLU645      0.0402
    201  CG        32.0110   24.5710   21.1500 C.3   645  GLU645      0.1161
    202  CD        31.9030   25.4190   22.4140 C.2   645  GLU645      0.3649
    203  OE1       32.6210   25.1420   23.3950 O.co2 645  GLU645     -0.2457
    204  OE2       31.1000   26.3760   22.4240 O.co2 645  GLU645     -0.2457
    205  N         35.5300   22.8630   21.6940 N.am  646  ALA646     -0.1966
    206  CA        35.9690   21.4680   21.7350 C.3   646  ALA646      0.1728
    207  C         34.8960   20.5080   21.2360 C.2   646  ALA646      0.2617
    208  O         35.1500   19.6660   20.3700 O.2   646  ALA646     -0.2715
    209  CB        36.3950   21.0870   23.1550 C.3   646  ALA646      0.0334
    210  N         33.6930   20.6310   21.7830 N.am  647  SER647     -0.1936
    211  CA        32.6010   19.7660   21.3600 C.3   647  SER647      0.2055
    212  C         31.2780   20.4960   21.3160 C.2   647  SER647      0.2644
    213  O         30.6620   20.6350   20.2550 O.2   647  SER647     -0.2714
    214  CB        32.4670   18.5650   22.3050 C.3   647  SER647      0.2130
    215  OG        31.2850   17.8240   22.0290 O.3   647  SER647     -0.2179
    216  N         30.8710   20.9830   22.4830 N.am  648  GLY648     -0.1939
    217  CA        29.5890   21.6360   22.6290 C.3   648  GLY648      0.2014
    218  C         28.6530   20.4900   22.9830 C.2   648  GLY648      0.2639
    219  O         28.9060   19.3540   22.5770 O.2   648  GLY648     -0.2714
    220  N         27.6160   20.7540   23.7700 N.am  649  THR649     -0.1950
    221  CA        26.6440   19.7220   24.1200 C.3   649  THR649      0.1897
    222  C         25.2470   20.3110   23.9770 C.2   649  THR649      0.2313
    223  O         24.2740   19.5840   23.7710 O.2   649  THR649     -0.2863
    224  CB        26.8330   19.1840   25.5550 C.3   649  THR649      0.1794
    225  OG1       26.8560   20.2750   26.4800 O.3   649  THR649     -0.2208
    226  CG2       28.1330   18.3900   25.6550 C.3   649  THR649      0.0378
@<TRIPOS>BOND
     1   178   177    2
     2   190   189    2
     3   199   198    2
     4   196   197    1
     5   189   188    1
     6   200   197    1
     7   200   201    1
     8   213   212    2
     9   208   207    2
    10   177   176    1
    11   177   187   am
    12   198   197    1
    13   198   205   am
    14   176   179    1
    15   176   175    1
    16   188   187    1
    17   188   191    1
    18   201   202    1
    19   207   206    1
    20   207   210   am
    21   212   211    1
    22   212   216   am
    23   211   210    1
    24   211   214    1
    25   179   180    1
    26   205   206    1
    27   206   209    1
    28   181   180   ar
    29   181   183   ar
    30   215   214    1
    31   162   163    2
    32   162   161    1
    33   191   192    1
    34   180   182   ar
    35   202   204   ar
    36   202   203   ar
    37   216   217    1
    38   170   169    2
    39   183   185   ar
    40   219   218    2
    41   217   218    1
    42   218   220   am
    43   167   168    1
    44   192   193    1
    45   160   161    1
    46   161   164    1
    47   169   168    1
    48   182   184   ar
    49   220   221    1
    50   223   222    2
    51   185   184   ar
    52   185   186    1
    53   222   221    1
    54   168   171    1
    55   221   224    1
    56   166   164    1
    57   171   172    1
    58   193   194    1
    59   164   165    1
    60   195   194    1
    61   141   140    1
    62   141   142    2
    63   172   173    2
    64   172   174   am
    65   144   143    1
    66   140   143    1
    67   140   139    1
    68   224   226    1
    69   224   225    1
    70   132   131    2
    71   143   145    1
    72   139   131   am
    73   131   130    1
    74   130   129    1
    75   130   133    1
    76   133   134    1
    77    40    39    1
    78   135   134   ar
    79   135   137   ar
    80   134   136   ar
    81   146   147    1
    82    41    39    1
    83   150   147    1
    84    23    22    1
    85    23    24    1
    86    73    72    2
    87    39    38    1
    88   137   138   ar
    89   147   148    1
    90    74    71    1
    91    74    75    1
    92    22    20   am
    93    24    25    2
    94    24    26   am
    95   136   138   ar
    96    38    35    1
    97    71    72    1
    98    71    70    1
    99    65    64    2
   100    72    78   am
   101   148   149    2
   102    86    84   ar
   103    86    88   ar
   104    77    75   am
   105    26    27    1
   106    84    83   ar
   107    69    67   ar
   108    35    34    1
   109    35    36    1
   110    75    76    2
   111    20    19    1
   112    20    21    2
   113    64    70   am
   114    64    63    1
   115    27    30    1
   116    27    28    1
   117    67    68   ar
   118    67    66    1
   119    78    79    1
   120   117   116   ar
   121    19    18    1
   122    88    87   ar
   123    30    31    1
   124    79    82    1
   125    79    80    1
   126    83    82    1
   127    83    85   ar
   128    37    36    2
   129   118   116   ar
   130   116   115    1
   131    66    63    1
   132    32    31    1
   133    28    29    2
   134    63    62    1
   135    31    33    1
   136   112   111    1
   137   112   115    1
   138   112   113    1
   139   151   152    1
   140    18    12   am
   141    87    85   ar
   142    89    80   am
   143    89    90    1
   144    13    12    2
   145    80    81    2
   146    62    56   am
   147    12    11    1
   148   113   114    2
   149   154   153    2
   150    93    90    1
   151    93    94    1
   152   152   153    1
   153   152   155    1
   154    90    91    1
   155    14    11    1
   156    14    15    1
   157    56    57    2
   158    56    55    1
   159    92    91    2
   160    11    10    1
   161   128   127   ar
   162   128   126   ar
   163   127   125   ar
   164    94    95   ar
   165    94    96   ar
   166   155   156    1
   167    95    97   ar
   168   156   157    1
   169    55    58    1
   170    55    54    1
   171     9     7   ar
   172    15    16    2
   173    15    17   am
   174   126   124   ar
   175    58    59    1
   176    96    98   ar
   177   125   124   ar
   178     8     7   ar
   179     7     6    1
   180   119   120    1
   181    97    99   ar
   182    61    59   am
   183   158   157   ar
   184   124   123    1
   185   157   159   ar
   186    59    60    2
   187    98    99   ar
   188     5     6    1
   189     5     2    1
   190     4     3    2
   191   123   120    1
   192   120   121    1
   193   110   108    1
   194     3     2    1
   195     2     1    1
   196    45    44    2
   197   121   122    2
   198    44    43    1
   199   108   109    1
   200   108   107    2
   201   107   106    1
   202    46    43    1
   203    46    47    1
   204    43    42    1
   205   106   105    1
   206   105   104    1
   207    49    47   ar
   208    49    51   ar
   209    47    48   ar
   210    51    52   ar
   211   104   101    1
   212    48    50   ar
   213    52    50   ar
   214    52    53    1
   215   103   102    2
   216   101   102    1
   217   101   100    1
