@<TRIPOS>MOLECULE
tmp/2qn8A01.pdb
 109 110 0 0 0
SMALL
GASTEIGER

@<TRIPOS>ATOM
      1  N         10.0220   13.9820   49.7890 N.3    46  HIS46      -0.1241
      2  CA        10.2610   12.9010   50.7420 C.3    46  HIS46       0.1621
      3  C          9.5700   11.6170   50.3230 C.2    46  HIS46       0.2264
      4  O         10.1220   10.5300   50.4730 O.2    46  HIS46      -0.2867
      5  CB         9.7870   13.2880   52.1410 C.3    46  HIS46       0.0745
      6  CG        10.7530   14.1560   52.8660 C.ar   46  HIS46       0.0817
      7  ND1       10.8970   15.4950   52.5820 N.ar   46  HIS46      -0.2268
      8  CD2       11.6890   13.8620   53.7980 C.ar   46  HIS46       0.1154
      9  CE1       11.8830   15.9880   53.3050 C.ar   46  HIS46       0.1986
     10  NE2       12.3820   15.0190   54.0510 N.ar   46  HIS46      -0.2212
     11  N         11.6030   10.2310   47.5140 N.3    49  ARG49      -0.1245
     12  CA        12.8810    9.8080   48.0600 C.3    49  ARG49       0.1563
     13  C         12.7510    8.4520   48.7480 C.2    49  ARG49       0.2260
     14  O         13.6520    7.6150   48.6540 O.2    49  ARG49      -0.2867
     15  CB        13.3850   10.8470   49.0640 C.3    49  ARG49       0.0307
     16  CG        14.7720   10.5690   49.5890 C.3    49  ARG49       0.0489
     17  CD        15.1680   11.5780   50.6620 C.3    49  ARG49       0.2205
     18  NE        14.4910   11.3280   51.9310 N.pl3  49  ARG49      -0.0865
     19  CZ        14.6400   12.0780   53.0200 C.cat  49  ARG49       0.5346
     20  NH1       15.4460   13.1360   53.0020 N.pl3  49  ARG49       0.1354
     21  NH2       13.9860   11.7680   54.1340 N.pl3  49  ARG49       0.1354
     22  N         13.5150    5.4310   46.7520 N.3    52  LEU52      -0.1231
     23  CA        14.9020    5.2450   46.3340 C.3    52  LEU52       0.1693
     24  C         15.7200    4.4420   47.3350 C.2    52  LEU52       0.2591
     25  O         16.6430    3.7230   46.9590 O.2    52  LEU52      -0.2718
     26  CB        15.5920    6.6030   46.1540 C.3    52  LEU52       0.0284
     27  CG        15.3910    7.4350   44.8900 C.3    52  LEU52       0.0019
     28  CD1       16.0080    8.8120   45.1050 C.3    52  LEU52       0.0001
     29  CD2       16.0370    6.7390   43.7000 C.3    52  LEU52       0.0001
     30  N         15.3800    4.5850   48.6120 N.am   53  VAL53      -0.1980
     31  CA        16.1070    3.9360   49.7000 C.3    53  VAL53       0.1595
     32  C         16.4470    2.4550   49.5480 C.2    53  VAL53       0.2287
     33  O         17.6160    2.0770   49.6120 O.2    53  VAL53      -0.2864
     34  CB        15.3690    4.1390   51.0460 C.3    53  VAL53       0.0276
     35  CG1       16.1610    3.4990   52.1800 C.3    53  VAL53       0.0022
     36  CG2       15.1820    5.6260   51.3080 C.3    53  VAL53       0.0022
     37  N         18.8510    1.8810   46.7430 N.3    56  TRP56      -0.1241
     38  CA        20.1560    2.4590   47.0430 C.3    56  TRP56       0.1605
     39  C         20.9560    1.5200   47.9490 C.2    56  TRP56       0.2264
     40  O         22.1340    1.2580   47.7070 O.2    56  TRP56      -0.2867
     41  CB        19.9710    3.8290   47.7130 C.3    56  TRP56       0.0550
     42  CG        21.1760    4.7340   47.6450 C.ar   56  TRP56       0.0003
     43  CD1       22.3360    4.5130   46.9570 C.ar   56  TRP56       0.0946
     44  CD2       21.3180    6.0210   48.2650 C.ar   56  TRP56       0.0152
     45  NE1       23.1900    5.5840   47.1080 N.ar   56  TRP56      -0.2442
     46  CE2       22.5900    6.5210   47.9050 C.ar   56  TRP56       0.0810
     47  CE3       20.4930    6.7980   49.0870 C.ar   56  TRP56       0.0012
     48  CZ2       23.0570    7.7680   48.3420 C.ar   56  TRP56       0.0191
     49  CZ3       20.9600    8.0430   49.5230 C.ar   56  TRP56       0.0001
     50  CH2       22.2310    8.5110   49.1480 C.ar   56  TRP56       0.0015
     51  N         18.1410   20.5020   51.6970 N.3   176  ASN176     -0.1226
     52  CA        18.2590   19.6470   50.5210 C.3   176  ASN176      0.1770
     53  C         17.8100   18.2490   50.9480 C.2   176  ASN176      0.2439
     54  O         18.5510   17.5270   51.6050 O.2   176  ASN176     -0.2733
     55  CB        19.7200   19.6350   50.0610 C.3   176  ASN176      0.1168
     56  CG        19.9650   18.7130   48.8840 C.2   176  ASN176      0.2627
     57  OD1       19.0510   18.0520   48.3890 O.2   176  ASN176     -0.2716
     58  ND2       21.2130   18.6640   48.4290 N.am  176  ASN176     -0.0877
     59  N         16.5860   17.8520   50.5720 N.am  177  PRO177     -0.2718
     60  CA        16.0250   16.5420   50.9220 C.3   177  PRO177      0.1535
     61  C         16.7170   15.3440   50.2780 C.2   177  PRO177      0.2599
     62  O         16.5710   14.2120   50.7360 O.2   177  PRO177     -0.2715
     63  CB        14.5730   16.6730   50.4740 C.3   177  PRO177      0.0310
     64  CG        14.6990   17.5020   49.2440 C.3   177  PRO177      0.0237
     65  CD        15.6830   18.5800   49.6620 C.3   177  PRO177      0.0939
     66  N         17.4850   15.5950   49.2300 N.am  178  TRP178     -0.1960
     67  CA        18.1500   14.5150   48.5220 C.3   178  TRP178      0.1771
     68  C         19.4620   14.0130   49.1130 C.2   178  TRP178      0.2620
     69  O         19.8020   12.8430   48.9480 O.2   178  TRP178     -0.2715
     70  CB        18.3620   14.9280   47.0620 C.3   178  TRP178      0.0590
     71  CG        17.1000   15.4250   46.4300 C.ar  178  TRP178      0.0006
     72  CD1       16.8010   16.7130   46.0920 C.ar  178  TRP178      0.0946
     73  CD2       15.9410   14.6470   46.1110 C.ar  178  TRP178      0.0152
     74  NE1       15.5270   16.7870   45.5840 N.ar  178  TRP178     -0.2442
     75  CE2       14.9750   15.5340   45.5840 C.ar  178  TRP178      0.0810
     76  CE3       15.6230   13.2860   46.2210 C.ar  178  TRP178      0.0012
     77  CZ2       13.7080   15.1030   45.1670 C.ar  178  TRP178      0.0191
     78  CZ3       14.3610   12.8560   45.8030 C.ar  178  TRP178      0.0001
     79  CH2       13.4210   13.7650   45.2830 C.ar  178  TRP178      0.0015
     80  N         20.1910   14.8750   49.8150 N.am  179  GLU179     -0.1963
     81  CA        21.4770   14.4810   50.3810 C.3   179  GLU179      0.1733
     82  C         21.4060   13.7860   51.7410 C.2   179  GLU179      0.2616
     83  O         20.4540   13.9580   52.5030 O.2   179  GLU179     -0.2715
     84  CB        22.3900   15.7050   50.5010 C.3   179  GLU179      0.0429
     85  CG        21.9220   16.6970   51.5460 C.3   179  GLU179      0.1163
     86  CD        22.7580   17.9610   51.5900 C.2   179  GLU179      0.3649
     87  OE1       22.5220   18.7810   52.4970 O.co2 179  GLU179     -0.2457
     88  OE2       23.6420   18.1440   50.7250 O.co2 179  GLU179     -0.2457
     89  N         22.4300   12.9930   52.0290 N.am  180  LYS180     -0.1963
     90  CA        22.5380   12.2890   53.3030 C.3   180  LYS180      0.1728
     91  C         23.9730   12.4250   53.7940 C.2   180  LYS180      0.2616
     92  O         24.8990   11.9250   53.1580 O.2   180  LYS180     -0.2715
     93  CB        22.1940   10.8010   53.1500 C.3   180  LYS180      0.0311
     94  CG        22.4580    9.9790   54.4160 C.3   180  LYS180      0.0038
     95  CD        21.6170   10.4710   55.5840 C.3   180  LYS180      0.0206
     96  CE        22.1600    9.9680   56.9190 C.3   180  LYS180      0.1093
     97  NZ        22.3050    8.4850   56.9420 N.3   180  LYS180     -0.1314
     98  N         24.1560   13.1120   54.9170 N.am  181  ALA181     -0.1977
     99  CA        25.4840   13.2970   55.4850 C.3   181  ALA181      0.1597
    100  C         25.9890   11.9560   55.9980 C.2   181  ALA181      0.2287
    101  O         25.2150   11.1510   56.5200 O.2   181  ALA181     -0.2864
    102  CB        25.4300   14.3150   56.6240 C.3   181  ALA181      0.0319
    103  N         21.7790   10.2510   45.8800 N.3   218  PRO218     -0.2116
    104  CA        21.4840    9.0930   45.0320 C.3   218  PRO218      0.1372
    105  C         21.4150    9.4460   43.5490 C.2   218  PRO218      0.2244
    106  O         20.9310   10.5120   43.1770 O.2   218  PRO218     -0.2868
    107  CB        20.1350    8.6210   45.5660 C.3   218  PRO218      0.0268
    108  CG        19.4740    9.9280   45.9180 C.3   218  PRO218      0.0207
    109  CD        20.5900   10.6410   46.6620 C.3   218  PRO218      0.0892
@<TRIPOS>BOND
     1   106   105    2
     2   105   104    1
     3    29    27    1
     4    27    28    1
     5    27    26    1
     6   104   107    1
     7   104   103    1
     8    77    79   ar
     9    77    75   ar
    10    79    78   ar
    11   107   108    1
    12    74    75   ar
    13    74    72   ar
    14    75    73   ar
    15    78    76   ar
    16   103   109    1
    17   108   109    1
    18    72    71   ar
    19    73    76   ar
    20    73    71   ar
    21    26    23    1
    22    23    22    1
    23    23    24    1
    24    71    70    1
    25    37    38    1
    26    43    45   ar
    27    43    42   ar
    28    25    24    2
    29    38    41    1
    30    38    39    1
    31    70    67    1
    32    45    46   ar
    33    24    30   am
    34    11    12    1
    35    42    41    1
    36    42    44   ar
    37    40    39    2
    38    46    44   ar
    39    46    48   ar
    40    12    13    1
    41    12    15    1
    42    44    47   ar
    43    48    50   ar
    44    57    56    2
    45    58    56   am
    46    67    68    1
    47    67    66    1
    48    30    31    1
    49    14    13    2
    50    56    55    1
    51    69    68    2
    52    15    16    1
    53    47    49   ar
    54    68    80   am
    55    50    49   ar
    56    66    61   am
    57    64    65    1
    58    64    63    1
    59    32    33    2
    60    32    31    1
    61    16    17    1
    62    65    59    1
    63    31    34    1
    64     1     2    1
    65    80    81    1
    66    55    52    1
    67    61    62    2
    68    61    60    1
    69     3     4    2
    70     3     2    1
    71    81    84    1
    72    81    82    1
    73    63    60    1
    74    84    85    1
    75    52    53    1
    76    52    51    1
    77    59    60    1
    78    59    53   am
    79    17    18    1
    80    88    86   ar
    81     2     5    1
    82    53    54    2
    83    34    36    1
    84    34    35    1
    85    85    86    1
    86    86    87   ar
    87    82    89   am
    88    82    83    2
    89    18    19    2
    90    89    90    1
    91     5     6    1
    92     7     6   ar
    93     7     9   ar
    94     6     8   ar
    95    20    19    1
    96    19    21    1
    97    93    90    1
    98    93    94    1
    99    92    91    2
   100    90    91    1
   101     9    10   ar
   102    91    98   am
   103     8    10   ar
   104    94    95    1
   105    98    99    1
   106    99   100    1
   107    99   102    1
   108    95    96    1
   109   100   101    2
   110    96    97    1
