@<TRIPOS>MOLECULE
tmp/2qn9A01.pdb
 218 208 0 0 0
SMALL
GASTEIGER

@<TRIPOS>ATOM
      1  N         32.9090   20.1470   39.4000 N.3    77  GLU77      -0.1245
      2  CA        31.5950   20.6250   39.0020 C.3    77  GLU77       0.1567
      3  C         30.6310   19.5050   38.6310 C.2    77  GLU77       0.2260
      4  O         30.9920   18.5630   37.9240 O.2    77  GLU77      -0.2867
      5  CB        31.7080   21.5980   37.8130 C.3    77  GLU77       0.0388
      6  CG        32.5650   22.8220   38.0860 C.3    77  GLU77       0.1160
      7  CD        32.5560   23.8130   36.9420 C.2    77  GLU77       0.3649
      8  OE1       33.4580   24.6700   36.9130 O.co2  77  GLU77      -0.2457
      9  OE2       31.6530   23.7410   36.0750 O.co2  77  GLU77      -0.2457
     10  N         29.4340   25.4520   35.9700 N.3   122  ASN122     -0.1225
     11  CA        29.4050   26.6480   35.1390 C.3   122  ASN122      0.1785
     12  C         28.6370   26.4550   33.8390 C.2   122  ASN122      0.2598
     13  O         27.8560   27.3120   33.4310 O.2   122  ASN122     -0.2718
     14  CB        30.8360   27.0770   34.8080 C.3   122  ASN122      0.1169
     15  CG        31.4750   27.8690   35.9280 C.2   122  ASN122      0.2627
     16  OD1       31.0800   29.0040   36.1950 O.2   122  ASN122     -0.2716
     17  ND2       32.4600   27.2740   36.5960 N.am  122  ASN122     -0.0877
     18  N         28.8840   25.3320   33.1800 N.am  123  GLY123     -0.1942
     19  CA        28.2230   25.0690   31.9210 C.3   123  GLY123      0.2014
     20  C         28.4450   23.6620   31.4180 C.2   123  GLY123      0.2639
     21  O         28.1510   22.6940   32.1200 O.2   123  GLY123     -0.2714
     22  N         28.9890   23.5570   30.2080 N.am  124  GLY124     -0.1939
     23  CA        29.2120   22.2690   29.5710 C.3   124  GLY124      0.2014
     24  C         29.9450   21.1850   30.3390 C.2   124  GLY124      0.2638
     25  O         29.4880   20.0440   30.4180 O.2   124  GLY124     -0.2714
     26  N         31.1020   21.5370   30.8820 N.am  125  LEU125     -0.1977
     27  CA        31.9150   20.5960   31.6360 C.3   125  LEU125      0.1596
     28  C         31.1620   20.0480   32.8570 C.2   125  LEU125      0.2287
     29  O         31.2120   18.8500   33.1440 O.2   125  LEU125     -0.2864
     30  CB        33.2140   21.2970   32.0520 C.3   125  LEU125      0.0297
     31  CG        34.2060   20.6090   32.9870 C.3   125  LEU125      0.0022
     32  CD1       35.5980   21.2030   32.7620 C.3   125  LEU125      0.0001
     33  CD2       33.7570   20.7840   34.4330 C.3   125  LEU125      0.0001
     34  N         28.1690   17.8980   31.7080 N.3   128  LEU128     -0.1245
     35  CA        28.6280   16.6230   31.1520 C.3   128  LEU128      0.1561
     36  C         28.7760   15.6120   32.2850 C.2   128  LEU128      0.2260
     37  O         28.4130   14.4440   32.1480 O.2   128  LEU128     -0.2867
     38  CB        29.9780   16.7780   30.4530 C.3   128  LEU128      0.0270
     39  CG        30.4630   15.5030   29.7470 C.3   128  LEU128      0.0019
     40  CD1       29.6290   15.2750   28.4830 C.3   128  LEU128      0.0001
     41  CD2       31.9510   15.6290   29.3950 C.3   128  LEU128      0.0001
     42  N         33.8340   28.7100   41.8480 N.3   260  TYR260     -0.1241
     43  CA        34.4880   29.7640   41.0720 C.3   260  TYR260      0.1605
     44  C         33.7350   29.8010   39.7440 C.2   260  TYR260      0.2264
     45  O         33.6180   28.7830   39.0630 O.2   260  TYR260     -0.2867
     46  CB        35.9630   29.4480   40.8390 C.3   260  TYR260      0.0534
     47  CG        36.8580   29.9780   41.9360 C.ar  260  TYR260     -0.0201
     48  CD1       36.9870   29.3030   43.1500 C.ar  260  TYR260     -0.0009
     49  CD2       37.5360   31.1850   41.7770 C.ar  260  TYR260     -0.0009
     50  CE1       37.7720   29.8180   44.1820 C.ar  260  TYR260      0.0417
     51  CE2       38.3200   31.7120   42.8060 C.ar  260  TYR260      0.0417
     52  CZ        38.4330   31.0250   44.0010 C.ar  260  TYR260      0.1957
     53  OH        39.2030   31.5500   45.0130 O.3   260  TYR260     -0.2866
     54  N         34.5660   31.5690   36.9930 N.3   262  ASN262     -0.1225
     55  CA        35.4290   31.9570   35.8820 C.3   262  ASN262      0.1785
     56  C         35.7310   30.7660   34.9770 C.2   262  ASN262      0.2597
     57  O         36.6310   29.9750   35.2610 O.2   262  ASN262     -0.2718
     58  CB        36.7460   32.5310   36.4170 C.3   262  ASN262      0.1169
     59  CG        37.6080   33.1420   35.3190 C.2   262  ASN262      0.2627
     60  OD1       37.6010   32.6780   34.1730 O.2   262  ASN262     -0.2716
     61  ND2       38.3690   34.1780   35.6680 N.am  262  ASN262     -0.0877
     62  N         34.9820   30.6430   33.8840 N.am  263  ASP263     -0.1974
     63  CA        35.1850   29.5450   32.9460 C.3   263  ASP263      0.1709
     64  C         35.9100   30.0240   31.6880 C.2   263  ASP263      0.2293
     65  O         35.9510   29.3220   30.6800 O.2   263  ASP263     -0.2864
     66  CB        33.8360   28.9420   32.5590 C.3   263  ASP263      0.1436
     67  CG        32.9680   29.9120   31.7780 C.2   263  ASP263      0.3671
     68  OD1       33.1400   31.1410   31.9430 O.co2 263  ASP263     -0.2456
     69  OD2       32.1040   29.4480   31.0040 O.co2 263  ASP263     -0.2456
     70  N         39.0770   32.5150   31.9130 N.3   265  PHE265     -0.1227
     71  CA        40.4760   32.8350   32.1650 C.3   265  PHE265      0.1736
     72  C         40.9780   32.2140   33.4670 C.2   265  PHE265      0.2595
     73  O         40.3970   32.4320   34.5290 O.2   265  PHE265     -0.2718
     74  CB        40.6210   34.3600   32.2290 C.3   265  PHE265      0.0547
     75  CG        42.0380   34.8470   32.1760 C.ar  265  PHE265     -0.0202
     76  CD1       42.7760   34.7520   31.0000 C.ar  265  PHE265     -0.0042
     77  CD2       42.6320   35.4250   33.2950 C.ar  265  PHE265     -0.0042
     78  CE1       44.0890   35.2320   30.9340 C.ar  265  PHE265     -0.0003
     79  CE2       43.9440   35.9080   33.2410 C.ar  265  PHE265     -0.0003
     80  CZ        44.6720   35.8090   32.0570 C.ar  265  PHE265     -0.0000
     81  N         42.0590   31.4450   33.3890 N.am  266  PHE266     -0.1976
     82  CA        42.6090   30.8190   34.5840 C.3   266  PHE266      0.1639
     83  C         43.1950   31.8430   35.5490 C.2   266  PHE266      0.2290
     84  O         44.0130   32.6810   35.1650 O.2   266  PHE266     -0.2864
     85  CB        43.6910   29.7950   34.2130 C.3   266  PHE266      0.0560
     86  CG        44.5210   29.3330   35.3880 C.ar  266  PHE266     -0.0200
     87  CD1       45.8320   29.7720   35.5470 C.ar  266  PHE266     -0.0042
     88  CD2       43.9830   28.4780   36.3420 C.ar  266  PHE266     -0.0042
     89  CE1       46.5950   29.3640   36.6410 C.ar  266  PHE266     -0.0003
     90  CE2       44.7380   28.0660   37.4410 C.ar  266  PHE266     -0.0003
     91  CZ        46.0470   28.5100   37.5900 C.ar  266  PHE266     -0.0000
     92  N         41.2030   28.5890   45.2350 N.3   272  ARG272     -0.1245
     93  CA        40.8600   27.6040   44.2090 C.3   272  ARG272      0.1563
     94  C         41.7860   26.3930   44.3070 C.2   272  ARG272      0.2260
     95  O         41.3460   25.2560   44.1630 O.2   272  ARG272     -0.2867
     96  CB        40.9610   28.2280   42.8160 C.3   272  ARG272      0.0307
     97  CG        40.8680   27.2400   41.6540 C.3   272  ARG272      0.0489
     98  CD        39.4810   26.6230   41.4980 C.3   272  ARG272      0.2205
     99  NE        39.3990   25.8520   40.2580 N.pl3 272  ARG272     -0.0865
    100  CZ        38.2780   25.3560   39.7410 C.cat 272  ARG272      0.5346
    101  NH1       37.1120   25.5390   40.3520 N.pl3 272  ARG272      0.1354
    102  NH2       38.3220   24.6850   38.5960 N.pl3 272  ARG272      0.1354
    103  N         38.9930   17.2190   33.2490 N.3   310  ASP310     -0.1239
    104  CA        39.8980   18.3350   33.0020 C.3   310  ASP310      0.1674
    105  C         41.0350   18.2200   34.0150 C.2   310  ASP310      0.2266
    106  O         41.1360   17.2160   34.7140 O.2   310  ASP310     -0.2867
    107  CB        39.2010   19.6840   33.1550 C.3   310  ASP310      0.1410
    108  CG        39.7710   20.7310   32.2150 C.2   310  ASP310      0.3668
    109  OD1       39.0190   21.1980   31.3430 O.co2 310  ASP310     -0.2456
    110  OD2       40.9650   21.0790   32.3330 O.co2 310  ASP310     -0.2456
    111  N         41.4540   20.1360   36.6620 N.3   312  HIS312     -0.1241
    112  CA        41.0720   20.6370   37.9790 C.3   312  HIS312      0.1621
    113  C         41.4090   19.6670   39.1240 C.2   312  HIS312      0.2264
    114  O         41.8050   20.0980   40.2070 O.2   312  HIS312     -0.2867
    115  CB        39.5940   21.0170   37.9560 C.3   312  HIS312      0.0745
    116  CG        39.2340   21.8960   36.7950 C.ar  312  HIS312      0.0817
    117  ND1       37.9440   22.0300   36.3320 N.ar  312  HIS312     -0.2268
    118  CD2       40.0000   22.6900   36.0090 C.ar  312  HIS312      0.1154
    119  CE1       37.9290   22.8710   35.3120 C.ar  312  HIS312      0.1986
    120  NE2       39.1630   23.2870   35.0950 N.ar  312  HIS312     -0.2212
    121  N         39.0670   19.5710   27.7880 N.3   348  HIS348     -0.1226
    122  CA        37.8660   20.2500   27.3130 C.3   348  HIS348      0.1752
    123  C         38.0810   21.5330   26.5070 C.2   348  HIS348      0.2596
    124  O         37.1110   22.1780   26.1100 O.2   348  HIS348     -0.2718
    125  CB        36.9530   20.5600   28.5030 C.3   348  HIS348      0.0759
    126  CG        36.4750   19.3430   29.2330 C.ar  348  HIS348      0.0818
    127  ND1       35.3540   18.6360   28.8520 N.ar  348  HIS348     -0.2268
    128  CD2       36.9670   18.7060   30.3220 C.ar  348  HIS348      0.1154
    129  CE1       35.1750   17.6200   29.6770 C.ar  348  HIS348      0.1986
    130  NE2       36.1420   17.6400   30.5790 N.ar  348  HIS348     -0.2212
    131  N         39.3290   21.9290   26.2780 N.am  349  THR349     -0.1953
    132  CA        39.5750   23.1460   25.4970 C.3   349  THR349      0.1897
    133  C         41.0280   23.3030   25.0900 C.2   349  THR349      0.2313
    134  O         41.9240   22.8290   25.7840 O.2   349  THR349     -0.2863
    135  CB        39.1740   24.4230   26.2660 C.3   349  THR349      0.1794
    136  OG1       39.3360   25.5650   25.4110 O.3   349  THR349     -0.2208
    137  CG2       40.0440   24.6010   27.4920 C.3   349  THR349      0.0378
    138  N         42.7620   29.3150   29.3090 N.3   354  ALA354     -0.1245
    139  CA        41.9560   28.4680   30.1890 C.3   354  ALA354      0.1562
    140  C         42.7740   27.3600   30.8550 C.2   354  ALA354      0.2260
    141  O         42.3350   26.7580   31.8400 O.2   354  ALA354     -0.2867
    142  CB        40.8020   27.8560   29.4010 C.3   354  ALA354      0.0290
    143  N         45.3900   25.4280   33.1250 N.3   356  GLU356     -0.1245
    144  CA        45.9020   25.6610   34.4680 C.3   356  GLU356      0.1567
    145  C         47.4150   25.5820   34.5370 C.2   356  GLU356      0.2260
    146  O         48.0040   24.5570   34.2050 O.2   356  GLU356     -0.2867
    147  CB        45.3160   24.6490   35.4580 C.3   356  GLU356      0.0388
    148  CG        43.8380   24.8010   35.7130 C.3   356  GLU356      0.1160
    149  CD        43.3780   23.9750   36.8890 C.2   356  GLU356      0.3649
    150  OE1       43.3900   22.7260   36.8040 O.co2 356  GLU356     -0.2457
    151  OE2       43.0100   24.5870   37.9080 O.co2 356  GLU356     -0.2457
    152  N         37.0170   15.5950   23.3860 N.3   426  VAL426     -0.1245
    153  CA        35.5830   15.3580   23.5020 C.3   426  VAL426      0.1561
    154  C         34.7450   15.4070   22.2250 C.2   426  VAL426      0.2260
    155  O         33.5210   15.4420   22.2830 O.2   426  VAL426     -0.2867
    156  CB        34.9910   16.3110   24.5590 C.3   426  VAL426      0.0252
    157  CG1       35.5160   15.9200   25.9400 C.3   426  VAL426      0.0019
    158  CG2       35.3870   17.7550   24.2510 C.3   426  VAL426      0.0019
    159  N         31.3210   13.6370   23.0820 N.3   455  ASN455     -0.1240
    160  CA        30.3390   13.9170   24.1250 C.3   455  ASN455      0.1653
    161  C         28.9300   13.4720   23.7550 C.2   455  ASN455      0.2266
    162  O         28.6430   13.1170   22.6090 O.2   455  ASN455     -0.2867
    163  CB        30.3140   15.4230   24.4390 C.3   455  ASN455      0.1155
    164  CG        31.4750   15.8700   25.3260 C.2   455  ASN455      0.2627
    165  OD1       31.6890   17.0730   25.5250 O.2   455  ASN455     -0.2716
    166  ND2       32.2190   14.9120   25.8680 N.am  455  ASN455     -0.0877
    167  N         34.6610   33.5230   21.9940 N.3   544  TYR544     -0.1227
    168  CA        34.7990   32.4540   21.0070 C.3   544  TYR544      0.1736
    169  C         33.4600   31.8570   20.5700 C.2   544  TYR544      0.2595
    170  O         33.3520   31.3330   19.4600 O.2   544  TYR544     -0.2718
    171  CB        35.7670   31.3620   21.5150 C.3   544  TYR544      0.0548
    172  CG        35.1720   30.2680   22.3870 C.ar  544  TYR544     -0.0200
    173  CD1       34.5760   29.1450   21.8160 C.ar  544  TYR544     -0.0009
    174  CD2       35.2390   30.3400   23.7790 C.ar  544  TYR544     -0.0009
    175  CE1       34.0680   28.1190   22.6010 C.ar  544  TYR544      0.0417
    176  CE2       34.7270   29.3150   24.5800 C.ar  544  TYR544      0.0417
    177  CZ        34.1460   28.2090   23.9810 C.ar  544  TYR544      0.1957
    178  OH        33.6500   27.1830   24.7520 O.3   544  TYR544     -0.2866
    179  N         32.4380   31.9460   21.4220 N.am  545  LYS545     -0.1980
    180  CA        31.1210   31.4130   21.0670 C.3   545  LYS545      0.1596
    181  C         30.4100   32.3700   20.1070 C.2   545  LYS545      0.2287
    182  O         29.3750   32.0450   19.5270 O.2   545  LYS545     -0.2864
    183  CB        30.2730   31.1720   22.3250 C.3   545  LYS545      0.0298
    184  CG        30.7620   29.9930   23.1700 C.3   545  LYS545      0.0038
    185  CD        29.9890   29.8900   24.4840 C.3   545  LYS545      0.0206
    186  CE        30.5400   28.7990   25.4060 C.3   545  LYS545      0.1093
    187  NZ        30.3410   27.4220   24.8610 N.3   545  LYS545     -0.1314
    188  N         35.4100   25.5610   19.8870 N.3   643  GLU643     -0.1231
    189  CA        34.4850   24.8430   20.7700 C.3   643  GLU643      0.1699
    190  C         34.8760   23.3660   20.7190 C.2   643  GLU643      0.2592
    191  O         34.6210   22.6970   19.7220 O.2   643  GLU643     -0.2718
    192  CB        33.0430   25.0340   20.2850 C.3   643  GLU643      0.0402
    193  CG        31.9470   24.5760   21.2560 C.3   643  GLU643      0.1161
    194  CD        31.8340   25.4550   22.4900 C.2   643  GLU643      0.3649
    195  OE1       32.5060   25.1590   23.5030 O.co2 643  GLU643     -0.2457
    196  OE2       31.0760   26.4510   22.4400 O.co2 643  GLU643     -0.2457
    197  N         35.4980   22.8630   21.7860 N.am  644  ALA644     -0.1966
    198  CA        35.9540   21.4720   21.8190 C.3   644  ALA644      0.1728
    199  C         34.8880   20.5080   21.3200 C.2   644  ALA644      0.2617
    200  O         35.1490   19.6460   20.4760 O.2   644  ALA644     -0.2715
    201  CB        36.3890   21.0790   23.2330 C.3   644  ALA644      0.0334
    202  N         33.6800   20.6590   21.8390 N.am  645  SER645     -0.1936
    203  CA        32.5960   19.7900   21.4260 C.3   645  SER645      0.2055
    204  C         31.2650   20.4990   21.3710 C.2   645  SER645      0.2644
    205  O         30.6540   20.6240   20.3060 O.2   645  SER645     -0.2714
    206  CB        32.4750   18.6090   22.3860 C.3   645  SER645      0.2130
    207  OG        31.2560   17.9190   22.1770 O.3   645  SER645     -0.2179
    208  N         30.8380   20.9750   22.5360 N.am  646  GLY646     -0.1939
    209  CA        29.5440   21.6070   22.6620 C.3   646  GLY646      0.2014
    210  C         28.5960   20.4700   23.0260 C.2   646  GLY646      0.2639
    211  O         28.8370   19.3210   22.6420 O.2   646  GLY646     -0.2714
    212  N         27.5550   20.7560   23.7990 N.am  647  THR647     -0.1950
    213  CA        26.5770   19.7260   24.1560 C.3   647  THR647      0.1897
    214  C         25.1830   20.3090   23.9960 C.2   647  THR647      0.2313
    215  O         24.2150   19.5830   23.7560 O.2   647  THR647     -0.2863
    216  CB        26.7550   19.1990   25.6010 C.3   647  THR647      0.1794
    217  OG1       26.8090   20.2980   26.5200 O.3   647  THR647     -0.2208
    218  CG2       28.0130   18.3580   25.7040 C.3   647  THR647      0.0378
@<TRIPOS>BOND
     1   170   169    2
     2   182   181    2
     3   191   190    2
     4   188   189    1
     5   181   180    1
     6   192   189    1
     7   192   193    1
     8   205   204    2
     9   200   199    2
    10   169   168    1
    11   169   179   am
    12   190   189    1
    13   190   197   am
    14   168   171    1
    15   168   167    1
    16   180   179    1
    17   180   183    1
    18   193   194    1
    19   199   198    1
    20   199   202   am
    21   204   203    1
    22   204   208   am
    23   203   202    1
    24   203   206    1
    25   171   172    1
    26   197   198    1
    27   173   172   ar
    28   173   175   ar
    29   198   201    1
    30   207   206    1
    31   154   155    2
    32   154   153    1
    33   183   184    1
    34   172   174   ar
    35   196   194   ar
    36   194   195   ar
    37   208   209    1
    38   175   177   ar
    39   162   161    2
    40   211   210    2
    41   209   210    1
    42   210   212   am
    43   159   160    1
    44   184   185    1
    45   152   153    1
    46   153   156    1
    47   161   160    1
    48   215   214    2
    49   174   176   ar
    50   212   213    1
    51   177   176   ar
    52   177   178    1
    53   214   213    1
    54   160   163    1
    55   213   216    1
    56   158   156    1
    57   163   164    1
    58   185   186    1
    59   156   157    1
    60   187   186    1
    61   133   132    1
    62   133   134    2
    63   164   165    2
    64   164   166   am
    65   136   135    1
    66   132   135    1
    67   132   131    1
    68   216   218    1
    69   216   217    1
    70   124   123    2
    71   135   137    1
    72   131   123   am
    73   123   122    1
    74   122   121    1
    75   122   125    1
    76    40    39    1
    77   125   126    1
    78   127   126   ar
    79   127   129   ar
    80   126   128   ar
    81   138   139    1
    82    41    39    1
    83   142   139    1
    84    23    22    1
    85    23    24    1
    86   129   130   ar
    87    39    38    1
    88   139   140    1
    89    22    20   am
    90   128   130   ar
    91    24    25    2
    92    24    26   am
    93    38    35    1
    94    65    64    2
    95   140   141    2
    96    26    27    1
    97    78    76   ar
    98    78    80   ar
    99    76    75   ar
   100    69    67   ar
   101    35    34    1
   102    35    36    1
   103   109   108   ar
   104    20    19    1
   105    20    21    2
   106    27    30    1
   107    27    28    1
   108    64    63    1
   109    67    68   ar
   110    67    66    1
   111    70    71    1
   112    19    18    1
   113    30    31    1
   114    80    79   ar
   115    37    36    2
   116    71    74    1
   117    71    72    1
   118    75    74    1
   119    75    77   ar
   120   108   110   ar
   121   108   107    1
   122    66    63    1
   123    32    31    1
   124    28    29    2
   125    63    62    1
   126    31    33    1
   127   104   107    1
   128   104   103    1
   129   104   105    1
   130   143   144    1
   131    18    12   am
   132    79    77   ar
   133    81    72   am
   134    81    82    1
   135    13    12    2
   136    72    73    2
   137    12    11    1
   138    62    56   am
   139   105   106    2
   140    60    59    2
   141   146   145    2
   142    85    82    1
   143    85    86    1
   144   144   145    1
   145   144   147    1
   146    82    83    1
   147    14    11    1
   148    14    15    1
   149    56    57    2
   150    56    55    1
   151   120   119   ar
   152   120   118   ar
   153    11    10    1
   154    84    83    2
   155   119   117   ar
   156    59    61   am
   157    59    58    1
   158    86    87   ar
   159    86    88   ar
   160   147   148    1
   161    87    89   ar
   162   148   149    1
   163    55    58    1
   164    55    54    1
   165    15    16    2
   166    15    17   am
   167   118   116   ar
   168     9     7   ar
   169   117   116   ar
   170    88    90   ar
   171    89    91   ar
   172   111   112    1
   173   116   115    1
   174   150   149   ar
   175   149   151   ar
   176     8     7   ar
   177     7     6    1
   178    90    91   ar
   179     5     6    1
   180     5     2    1
   181     4     3    2
   182   115   112    1
   183   112   113    1
   184   102   100    1
   185     3     2    1
   186     2     1    1
   187    45    44    2
   188   113   114    2
   189   100    99    2
   190   100   101    1
   191    44    43    1
   192    99    98    1
   193    46    43    1
   194    46    47    1
   195    43    42    1
   196    98    97    1
   197    97    96    1
   198    49    47   ar
   199    49    51   ar
   200    47    48   ar
   201    51    52   ar
   202    96    93    1
   203    48    50   ar
   204    52    50   ar
   205    52    53    1
   206    95    94    2
   207    93    94    1
   208    93    92    1
