@<TRIPOS>MOLECULE
tmp/2qnoA04.pdb
 111 107 0 0 0
SMALL
GASTEIGER

@<TRIPOS>ATOM
      1  N         82.5030   93.1160   56.2580 N.3    36  HIS36      -0.1241
      2  CA        82.0360   93.3480   54.8800 C.3    36  HIS36       0.1621
      3  C         82.7860   94.5410   54.2110 C.2    36  HIS36       0.2264
      4  O         83.1670   94.4690   53.0560 O.2    36  HIS36      -0.2867
      5  CB        80.5250   93.6030   54.8780 C.3    36  HIS36       0.0745
      6  CG        79.9630   93.9410   53.5320 C.ar   36  HIS36       0.0817
      7  ND1       79.6850   92.9870   52.5740 N.ar   36  HIS36      -0.2268
      8  CD2       79.6160   95.1300   52.9860 C.ar   36  HIS36       0.1154
      9  CE1       79.2020   93.5750   51.4910 C.ar   36  HIS36       0.1986
     10  NE2       79.1360   94.8750   51.7210 N.ar   36  HIS36      -0.2212
     11  N         73.3930   97.2910   51.6890 N.3    44  GLU44      -0.1231
     12  CA        73.2640   96.8350   50.3070 C.3    44  GLU44       0.1699
     13  C         72.8260   95.3830   50.1960 C.2    44  GLU44       0.2592
     14  O         72.1240   95.0320   49.2690 O.2    44  GLU44      -0.2718
     15  CB        74.5520   97.0780   49.4900 C.3    44  GLU44       0.0402
     16  CG        75.8120   96.4320   50.0510 C.3    44  GLU44       0.1161
     17  CD        77.0850   97.0680   49.4640 C.2    44  GLU44       0.3649
     18  OE1       77.0290   98.2500   49.0600 O.co2  44  GLU44      -0.2457
     19  OE2       78.1240   96.3880   49.4320 O.co2  44  GLU44      -0.2457
     20  N         73.2740   94.5330   51.1050 N.am   45  ALA45      -0.1980
     21  CA        72.7650   93.1470   51.2050 C.3    45  ALA45       0.1597
     22  C         72.8170   92.8610   52.7020 C.2    45  ALA45       0.2287
     23  O         71.7790   92.6140   53.3190 O.2    45  ALA45      -0.2864
     24  CB        73.6290   92.1810   50.4190 C.3    45  ALA45       0.0319
     25  N         66.0120   95.1880   44.8290 N.3   406  PRO406     -0.2116
     26  CA        65.8890   95.2890   43.3800 C.3   406  PRO406      0.1372
     27  C         65.9200   93.8770   42.7570 C.2   406  PRO406      0.2244
     28  O         66.2310   92.9030   43.4680 O.2   406  PRO406     -0.2868
     29  CB        67.1460   96.0830   42.9980 C.3   406  PRO406      0.0268
     30  CG        68.1690   95.6820   44.0120 C.3   406  PRO406      0.0207
     31  CD        67.4000   95.4180   45.2890 C.3   406  PRO406      0.0892
     32  N         71.8030   93.4010   38.1850 N.3   411  TRP411     -0.1241
     33  CA        73.1670   93.8300   38.4590 C.3   411  TRP411      0.1605
     34  C         74.1480   92.9710   37.6560 C.2   411  TRP411      0.2264
     35  O         74.0600   91.7450   37.6660 O.2   411  TRP411     -0.2867
     36  CB        73.4680   93.6730   39.9490 C.3   411  TRP411      0.0550
     37  CG        74.8970   94.0450   40.3810 C.ar  411  TRP411      0.0003
     38  CD1       75.5830   95.2030   40.1090 C.ar  411  TRP411      0.0946
     39  CD2       75.7700   93.2410   41.2000 C.ar  411  TRP411      0.0152
     40  NE1       76.8350   95.1580   40.7240 N.ar  411  TRP411     -0.2442
     41  CE2       76.9590   93.9760   41.4030 C.ar  411  TRP411      0.0810
     42  CE3       75.6690   91.9540   41.7480 C.ar  411  TRP411      0.0012
     43  CZ2       78.0380   93.4690   42.1350 C.ar  411  TRP411      0.0191
     44  CZ3       76.7330   91.4570   42.4910 C.ar  411  TRP411      0.0001
     45  CH2       77.9040   92.2260   42.6770 C.ar  411  TRP411      0.0015
     46  N         76.6270   98.2480   34.5410 N.3   461  SER461     -0.1202
     47  CA        76.3010   98.1980   35.9550 C.3   461  SER461      0.2020
     48  C         74.8850   97.6110   36.1320 C.2   461  SER461      0.2619
     49  O         74.7370   96.5270   36.6940 O.2   461  SER461     -0.2717
     50  CB        76.3970   99.6050   36.5600 C.3   461  SER461      0.2103
     51  OG        76.1120   99.5890   37.9490 O.3   461  SER461     -0.2182
     52  N         73.8630   98.3310   35.6470 N.am  462  THR462     -0.1952
     53  CA        72.4700   97.8780   35.7250 C.3   462  THR462      0.1897
     54  C         72.0700   97.3480   34.3500 C.2   462  THR462      0.2313
     55  O         72.3720   97.9750   33.3170 O.2   462  THR462     -0.2863
     56  CB        71.5340   99.0350   36.1370 C.3   462  THR462      0.1794
     57  OG1       71.8760   99.4560   37.4680 O.3   462  THR462     -0.2208
     58  CG2       70.0560   98.6180   36.1110 C.3   462  THR462      0.0378
     59  N         82.4470   99.9910   38.7630 N.3   494  ASP494     -0.1239
     60  CA        82.4520   99.1410   39.9380 C.3   494  ASP494      0.1674
     61  C         83.7560   98.3280   39.9620 C.2   494  ASP494      0.2266
     62  O         83.9890   97.4740   39.1090 O.2   494  ASP494     -0.2867
     63  CB        81.1850   98.2760   39.9570 C.3   494  ASP494      0.1410
     64  CG        81.0690   97.4420   41.2050 C.2   494  ASP494      0.3668
     65  OD1       82.0900   96.8340   41.6390 O.co2 494  ASP494     -0.2456
     66  OD2       79.9380   97.3800   41.7380 O.co2 494  ASP494     -0.2456
     67  N         81.2160  106.6470   44.7710 N.3   542  GLU542     -0.1245
     68  CA        79.9920  106.1400   44.1710 C.3   542  GLU542      0.1567
     69  C         78.7530  106.7730   44.7830 C.2   542  GLU542      0.2260
     70  O         78.7400  107.1230   45.9630 O.2   542  GLU542     -0.2867
     71  CB        79.9330  104.6000   44.2460 C.3   542  GLU542      0.0388
     72  CG        79.5650  104.0280   45.6020 C.3   542  GLU542      0.1160
     73  CD        79.6620  102.4880   45.6380 C.2   542  GLU542      0.3649
     74  OE1       80.7880  101.9420   45.6490 O.co2 542  GLU542     -0.2457
     75  OE2       78.6060  101.8300   45.6940 O.co2 542  GLU542     -0.2457
     76  N         75.0610  106.6460   46.2660 N.3   544  ARG544     -0.1245
     77  CA        74.2790  105.6690   47.0310 C.3   544  ARG544      0.1563
     78  C         72.8090  106.0510   46.8590 C.2   544  ARG544      0.2260
     79  O         72.1860  106.6870   47.7260 O.2   544  ARG544     -0.2867
     80  CB        74.7080  105.6320   48.5080 C.3   544  ARG544      0.0307
     81  CG        76.2340  105.6270   48.7470 C.3   544  ARG544      0.0489
     82  CD        76.8720  104.2850   48.2980 C.3   544  ARG544      0.2205
     83  NE        76.6070  103.2230   49.2530 N.pl3 544  ARG544     -0.0865
     84  CZ        76.3830  101.9410   48.9520 C.cat 544  ARG544      0.5346
     85  NH1       76.3440  101.5310   47.6910 N.pl3 544  ARG544      0.1354
     86  NH2       76.1550  101.0840   49.9330 N.pl3 544  ARG544      0.1354
     87  N         85.0440   97.5770   50.2100 N.3   609  ARG609     -0.1245
     88  CA        84.3940   96.2980   50.4640 C.3   609  ARG609      0.1563
     89  C         85.4680   95.2220   50.4300 C.2   609  ARG609      0.2260
     90  O         86.2860   95.1740   49.4850 O.2   609  ARG609     -0.2867
     91  CB        83.3420   96.0130   49.3860 C.3   609  ARG609      0.0307
     92  CG        82.2020   97.0610   49.3240 C.3   609  ARG609      0.0489
     93  CD        81.2960   96.8380   48.0820 C.3   609  ARG609      0.2205
     94  NE        80.1400   97.7270   48.0310 N.pl3 609  ARG609     -0.0865
     95  CZ        80.0840   98.8930   47.3830 C.cat 609  ARG609      0.5346
     96  NH1       81.1370   99.3710   46.7130 N.pl3 609  ARG609      0.1354
     97  NH2       78.9600   99.5980   47.3980 N.pl3 609  ARG609      0.1354
     98  N         85.2840   91.9730   49.8240 N.3   611  TRP611     -0.1241
     99  CA        85.2420   91.1130   48.6300 C.3   611  TRP611      0.1605
    100  C         85.8570   91.7800   47.3810 C.2   611  TRP611      0.2264
    101  O         86.5660   91.1250   46.6110 O.2   611  TRP611     -0.2867
    102  CB        83.8280   90.5610   48.3390 C.3   611  TRP611      0.0550
    103  CG        82.8420   91.5130   47.7500 C.ar  611  TRP611      0.0003
    104  CD1       81.8860   92.2380   48.4300 C.ar  611  TRP611      0.0946
    105  CD2       82.6800   91.8260   46.3700 C.ar  611  TRP611      0.0152
    106  NE1       81.1480   92.9760   47.5400 N.ar  611  TRP611     -0.2442
    107  CE2       81.6300   92.7600   46.2730 C.ar  611  TRP611      0.0810
    108  CE3       83.3520   91.4420   45.2040 C.ar  611  TRP611      0.0012
    109  CZ2       81.2060   93.2910   45.0470 C.ar  611  TRP611      0.0191
    110  CZ3       82.9270   91.9730   43.9740 C.ar  611  TRP611      0.0001
    111  CH2       81.8590   92.8750   43.9130 C.ar  611  TRP611      0.0015
@<TRIPOS>BOND
     1    55    54    2
     2    54    53    1
     3    46    47    1
     4    52    53    1
     5    52    48   am
     6    53    56    1
     7    47    48    1
     8    47    50    1
     9    58    56    1
    10    48    49    2
    11    56    57    1
    12    50    51    1
    13    34    35    2
    14    34    33    1
    15    32    33    1
    16    33    36    1
    17    59    60    1
    18    62    61    2
    19    60    63    1
    20    60    61    1
    21    36    37    1
    22    63    64    1
    23    38    37   ar
    24    38    40   ar
    25    37    39   ar
    26    40    41   ar
    27    39    41   ar
    28    39    42   ar
    29    64    65   ar
    30    64    66   ar
    31    41    43   ar
    32    42    44   ar
    33    43    45   ar
    34    44    45   ar
    35    27    26    1
    36    27    28    2
    37    29    26    1
    38    29    30    1
    39    26    25    1
    40   111   110   ar
    41   111   109   ar
    42   110   108   ar
    43    30    31    1
    44    68    71    1
    45    68    67    1
    46    68    69    1
    47    71    72    1
    48    69    70    2
    49    25    31    1
    50   109   107   ar
    51   108   105   ar
    52    72    73    1
    53    73    74   ar
    54    73    75   ar
    55    76    77    1
    56   107   105   ar
    57   107   106   ar
    58   105   103   ar
    59   101   100    2
    60    96    95    1
    61    78    77    1
    62    78    79    2
    63    77    80    1
    64   100    99    1
    65    95    97    1
    66    95    94    2
    67   106   104   ar
    68    85    84    1
    69   103   102    1
    70   103   104   ar
    71    94    93    1
    72    93    92    1
    73    82    81    1
    74    82    83    1
    75   102    99    1
    76    80    81    1
    77    99    98    1
    78    84    83    2
    79    84    86    1
    80    18    17   ar
    81    14    13    2
    82    92    91    1
    83    91    88    1
    84    19    17   ar
    85    17    16    1
    86    90    89    2
    87    15    16    1
    88    15    12    1
    89    13    12    1
    90    13    20   am
    91    87    88    1
    92    12    11    1
    93    24    21    1
    94    89    88    1
    95    20    21    1
    96    21    22    1
    97     9    10   ar
    98     9     7   ar
    99    10     8   ar
   100     7     6   ar
   101    22    23    2
   102     8     6   ar
   103     4     3    2
   104     6     5    1
   105     3     2    1
   106     5     2    1
   107     2     1    1
