@<TRIPOS>MOLECULE
tmp/2qnqB00.pdb
 112 105 0 0 0
SMALL
GASTEIGER

@<TRIPOS>ATOM
      1  N        -20.0960    8.4680    1.2310 N.3     8  ARG8       -0.1245
      2  CA       -19.3680    9.7170    1.4500 C.3     8  ARG8        0.1563
      3  C        -18.4670    9.6410    2.6790 C.2     8  ARG8        0.2260
      4  O        -18.8780    9.1620    3.7340 O.2     8  ARG8       -0.2867
      5  CB       -20.3310   10.8970    1.6120 C.3     8  ARG8        0.0307
      6  CG       -20.9730   11.3580    0.3260 C.3     8  ARG8        0.0489
      7  CD       -21.6260   12.7270    0.4890 C.3     8  ARG8        0.2205
      8  NE       -22.3320   13.1380   -0.7240 N.pl3   8  ARG8       -0.0865
      9  CZ       -22.9120   14.3250   -0.8900 C.cat   8  ARG8        0.5346
     10  NH1      -22.8730   15.2280    0.0830 N.pl3   8  ARG8        0.1354
     11  NH2      -23.5270   14.6140   -2.0320 N.pl3   8  ARG8        0.1354
     12  N        -17.0780   16.7000    5.2040 N.3    23  LEU23      -0.1245
     13  CA       -16.6880   15.7950    4.1350 C.3    23  LEU23       0.1561
     14  C        -15.2020   15.9120    3.7880 C.2    23  LEU23       0.2260
     15  O        -14.7100   17.0110    3.5160 O.2    23  LEU23      -0.2867
     16  CB       -17.5300   16.0980    2.8930 C.3    23  LEU23       0.0270
     17  CG       -17.3460   15.2490    1.6350 C.3    23  LEU23       0.0019
     18  CD1      -17.8480   13.8290    1.8900 C.3    23  LEU23       0.0001
     19  CD2      -18.1230   15.8880    0.4850 C.3    23  LEU23       0.0001
     20  N        -12.5990   16.0110    1.4260 N.3    25  ASP25      -0.1239
     21  CA       -12.5780   16.2820   -0.0060 C.3    25  ASP25       0.1674
     22  C        -11.1820   16.5280   -0.5750 C.2    25  ASP25       0.2266
     23  O        -10.6420   17.6210   -0.4380 O.2    25  ASP25      -0.2867
     24  CB       -13.4460   17.5170   -0.2490 C.3    25  ASP25       0.1410
     25  CG       -13.9440   17.6170   -1.6640 C.2    25  ASP25       0.3668
     26  OD1      -13.1480   17.4030   -2.6040 O.co2  25  ASP25      -0.2456
     27  OD2      -15.1450   17.9230   -1.8250 O.co2  25  ASP25      -0.2456
     28  N        -10.5420   16.8100   -3.5420 N.3    27  GLY27      -0.1210
     29  CA       -10.7000   17.6290   -4.7310 C.3    27  GLY27       0.1956
     30  C        -10.7490   19.1050   -4.3730 C.2    27  GLY27       0.2612
     31  O        -10.7750   19.9700   -5.2460 O.2    27  GLY27      -0.2717
     32  N        -10.7550   19.3920   -3.0760 N.am   28  ALA28      -0.1965
     33  CA       -10.8100   20.7660   -2.5890 C.3    28  ALA28       0.1728
     34  C         -9.4490   21.2340   -2.0970 C.2    28  ALA28       0.2616
     35  O         -8.8460   20.5920   -1.2360 O.2    28  ALA28      -0.2715
     36  CB       -11.8290   20.8690   -1.4550 C.3    28  ALA28       0.0334
     37  N         -8.9630   22.3500   -2.6310 N.am   29  ASP29      -0.1957
     38  CA        -7.6740   22.8710   -2.1910 C.3    29  ASP29       0.1840
     39  C         -7.8160   23.4170   -0.7780 C.2    29  ASP29       0.2622
     40  O         -6.9180   23.2630    0.0530 O.2    29  ASP29      -0.2715
     41  CB        -7.1880   24.0060   -3.0920 C.3    29  ASP29       0.1450
     42  CG        -7.0770   23.6000   -4.5460 C.2    29  ASP29       0.3671
     43  OD1       -6.7010   22.4430   -4.8350 O.co2  29  ASP29      -0.2456
     44  OD2       -7.3550   24.4550   -5.4070 O.co2  29  ASP29      -0.2456
     45  N         -8.9540   24.0470   -0.5120 N.am   30  ASP30      -0.1971
     46  CA        -9.2060   24.6530    0.7850 C.3    30  ASP30       0.1709
     47  C        -10.3620   24.0370    1.5650 C.2    30  ASP30       0.2293
     48  O        -11.1790   23.2710    1.0400 O.2    30  ASP30      -0.2864
     49  CB        -9.4850   26.1480    0.6150 C.3    30  ASP30       0.1436
     50  CG        -8.5220   26.8190   -0.3510 C.2    30  ASP30       0.3671
     51  OD1       -8.9270   27.0900   -1.5050 O.co2  30  ASP30      -0.2456
     52  OD2       -7.3600   27.0640    0.0410 O.co2  30  ASP30      -0.2456
     53  N        -13.7840   24.6160    3.5130 N.3    32  VAL32      -0.1245
     54  CA       -14.9090   25.5440    3.5090 C.3    32  VAL32       0.1561
     55  C        -16.0300   25.0500    4.4200 C.2    32  VAL32       0.2260
     56  O        -16.5220   23.9340    4.2680 O.2    32  VAL32      -0.2867
     57  CB       -15.5080   25.7250    2.0880 C.3    32  VAL32       0.0252
     58  CG1      -16.4580   26.9250    2.0860 C.3    32  VAL32       0.0019
     59  CG2      -14.4040   25.8960    1.0600 C.3    32  VAL32       0.0019
     60  N        -13.1140   31.3210   -4.5770 N.3    47  ILE47      -0.1231
     61  CA       -12.8880   29.8980   -4.7760 C.3    47  ILE47       0.1692
     62  C        -13.6890   29.4210   -5.9780 C.2    47  ILE47       0.2593
     63  O        -14.8160   29.8650   -6.2060 O.2    47  ILE47      -0.2718
     64  CB       -13.2550   29.0540   -3.5210 C.3    47  ILE47       0.0266
     65  CG1      -14.7060   29.2850   -3.1110 C.3    47  ILE47       0.0019
     66  CG2      -12.3250   29.4090   -2.3730 C.3    47  ILE47       0.0020
     67  CD1      -15.1410   28.3950   -1.9580 C.3    47  ILE47       0.0001
     68  N        -13.0850   28.5340   -6.7590 N.am   48  GLY48      -0.1942
     69  CA       -13.7490   28.0210   -7.9410 C.3    48  GLY48       0.2014
     70  C        -14.4580   26.7180   -7.6660 C.2    48  GLY48       0.2639
     71  O        -13.8920   25.8210   -7.0490 O.2    48  GLY48      -0.2714
     72  N        -15.7030   26.6220   -8.1210 N.am   49  GLY49      -0.1939
     73  CA       -16.4910   25.4220   -7.9190 C.3    49  GLY49       0.2014
     74  C        -16.9560   24.8240   -9.2290 C.2    49  GLY49       0.2638
     75  O        -16.5970   25.3130  -10.3010 O.2    49  GLY49      -0.2714
     76  N        -17.7600   23.7700   -9.1540 N.am   50  ILE50      -0.1977
     77  CA       -18.2600   23.1230  -10.3610 C.3    50  ILE50       0.1596
     78  C        -19.0820   24.0970  -11.2150 C.2    50  ILE50       0.2287
     79  O        -19.0790   24.0090  -12.4430 O.2    50  ILE50      -0.2864
     80  CB       -19.1310   21.8770  -10.0230 C.3    50  ILE50       0.0276
     81  CG1      -19.5490   21.1640  -11.3130 C.3    50  ILE50       0.0022
     82  CG2      -20.3700   22.2840   -9.2390 C.3    50  ILE50       0.0022
     83  CD1      -18.4010   20.5030  -12.0530 C.3    50  ILE50       0.0001
     84  N        -21.3920   26.7640    1.2400 N.3    80  THR80      -0.1204
     85  CA       -20.9670   25.4780    0.7210 C.3    80  THR80       0.1979
     86  C        -22.0990   24.4640    0.8610 C.2    80  THR80       0.2460
     87  O        -22.8630   24.4950    1.8290 O.2    80  THR80      -0.2732
     88  CB       -19.7100   24.9760    1.4740 C.3    80  THR80       0.1783
     89  OG1      -19.2910   23.7200    0.9250 O.3    80  THR80      -0.2211
     90  CG2      -20.0010   24.8190    2.9700 C.3    80  THR80       0.0376
     91  N        -22.2320   23.5540   -0.1170 N.am   81  PRO81      -0.2717
     92  CA       -23.2890   22.5390   -0.0710 C.3    81  PRO81       0.1535
     93  C        -23.1710   21.6430    1.1570 C.2    81  PRO81       0.2598
     94  O        -24.1500   21.0430    1.6010 O.2    81  PRO81      -0.2715
     95  CB       -23.1020   21.7820   -1.3870 C.3    81  PRO81       0.0310
     96  CG       -21.6480   21.9590   -1.6810 C.3    81  PRO81       0.0237
     97  CD       -21.4070   23.4010   -1.3260 C.3    81  PRO81       0.0939
     98  N        -21.9630   21.5710    1.7090 N.am   82  VAL82      -0.1978
     99  CA       -21.6870   20.7720    2.9050 C.3    82  VAL82       0.1596
    100  C        -20.3460   21.2340    3.4840 C.2    82  VAL82       0.2287
    101  O        -19.5400   21.8350    2.7670 O.2    82  VAL82      -0.2864
    102  CB       -21.6250   19.2520    2.5630 C.3    82  VAL82       0.0276
    103  CG1      -20.4650   18.9620    1.6000 C.3    82  VAL82       0.0022
    104  CG2      -21.4740   18.4320    3.8410 C.3    82  VAL82       0.0022
    105  N        -16.6880   21.2060    4.2550 N.3    84  ILE84      -0.1245
    106  CA       -15.6160   20.5200    3.5470 C.3    84  ILE84       0.1561
    107  C        -14.2070   20.7300    4.0940 C.2    84  ILE84       0.2260
    108  O        -13.7430   21.8610    4.2660 O.2    84  ILE84      -0.2867
    109  CB       -15.6390   20.9060    2.0520 C.3    84  ILE84       0.0252
    110  CG1      -16.7730   20.1510    1.3700 C.3    84  ILE84       0.0019
    111  CG2      -14.3010   20.5870    1.3850 C.3    84  ILE84       0.0019
    112  CD1      -17.1620   20.7270    0.0800 C.3    84  ILE84       0.0001
@<TRIPOS>BOND
     1    79    78    2
     2    83    81    1
     3    81    80    1
     4    78    77    1
     5    77    80    1
     6    77    76    1
     7    75    74    2
     8    80    82    1
     9    74    76   am
    10    74    73    1
    11    72    73    1
    12    72    70   am
    13    69    70    1
    14    69    68    1
    15    70    71    2
    16    68    62   am
    17    63    62    2
    18    62    61    1
    19    44    42   ar
    20    31    30    2
    21    43    42   ar
    22    61    60    1
    23    61    64    1
    24    29    30    1
    25    29    28    1
    26    42    41    1
    27    30    32   am
    28    64    65    1
    29    64    66    1
    30    65    67    1
    31    41    38    1
    32    32    33    1
    33    37    38    1
    34    37    34   am
    35    26    25   ar
    36    33    34    1
    37    33    36    1
    38    38    39    1
    39    34    35    2
    40    11     9    1
    41    27    25   ar
    42    96    95    1
    43    96    97    1
    44    25    24    1
    45    51    50   ar
    46    95    92    1
    47    97    91    1
    48     9     8    2
    49     9    10    1
    50    39    45   am
    51    39    40    2
    52     8     7    1
    53    22    23    2
    54    22    21    1
    55    45    46    1
    56    50    52   ar
    57    50    49    1
    58    24    21    1
    59    91    92    1
    60    91    86   am
    61    92    93    1
    62    21    20    1
    63   112   110    1
    64     6     7    1
    65     6     5    1
    66    19    17    1
    67    49    46    1
    68    85    86    1
    69    85    84    1
    70    85    88    1
    71    46    47    1
    72    86    87    2
    73    89    88    1
    74    48    47    2
    75    59    57    1
    76    93    94    2
    77    93    98   am
    78     1     2    1
    79   110   109    1
    80   111   109    1
    81     2     5    1
    82     2     3    1
    83    88    90    1
    84   103   102    1
    85    17    18    1
    86    17    16    1
    87    98    99    1
    88   109   106    1
    89    58    57    1
    90    57    54    1
    91   102    99    1
    92   102   104    1
    93     3     4    2
    94   101   100    2
    95    16    13    1
    96    99   100    1
    97    54    53    1
    98    54    55    1
    99    15    14    2
   100   106   107    1
   101   106   105    1
   102    14    13    1
   103   107   108    2
   104    13    12    1
   105    56    55    2
