@<TRIPOS>MOLECULE
tmp/2qnrA00.pdb
 124 117 0 0 0
SMALL
GASTEIGER

@<TRIPOS>ATOM
      1  N         61.1880    1.2320   -2.3200 N.3     9  SER9       -0.1202
      2  CA        62.5630    0.9760   -2.6250 C.3     9  SER9        0.2020
      3  C         62.9760    1.7960   -3.8360 C.2     9  SER9        0.2619
      4  O         62.1900    1.9550   -4.7680 O.2     9  SER9       -0.2717
      5  CB        62.7450   -0.5120   -2.8960 C.3     9  SER9        0.2103
      6  OG        63.9730   -0.7470   -3.5420 O.3     9  SER9       -0.2182
      7  N         64.2010    2.3250   -3.8120 N.am   10  GLY10      -0.1942
      8  CA        64.7340    3.0920   -4.9310 C.3    10  GLY10       0.2014
      9  C         64.4050    4.5870   -4.9420 C.2    10  GLY10       0.2639
     10  O         64.6220    5.2640   -5.9800 O.2    10  GLY10      -0.2714
     11  N         63.8990    5.1240   -3.8260 N.am   11  LEU11      -0.1963
     12  CA        63.5780    6.5510   -3.7800 C.3    11  LEU11       0.1728
     13  C         64.6120    7.4050   -3.0490 C.2    11  LEU11       0.2617
     14  O         64.3090    8.5130   -2.6220 O.2    11  LEU11      -0.2715
     15  CB        62.2060    6.7630   -3.1730 C.3    11  LEU11       0.0311
     16  CG        61.0810    6.1710   -4.0320 C.3    11  LEU11       0.0022
     17  CD1       59.7260    6.4150   -3.3500 C.3    11  LEU11       0.0001
     18  CD2       61.0880    6.7450   -5.4580 C.3    11  LEU11       0.0001
     19  N         65.8340    6.9010   -2.9200 N.am   12  GLY12      -0.1940
     20  CA        66.9300    7.6820   -2.3580 C.3    12  GLY12       0.2014
     21  C         66.8640    7.8210   -0.8580 C.2    12  GLY12       0.2639
     22  O         67.4720    8.7220   -0.3010 O.2    12  GLY12      -0.2714
     23  N         66.1530    6.9070   -0.2040 N.am   13  LYS13      -0.1963
     24  CA        65.9480    6.9620    1.2510 C.3    13  LYS13       0.1728
     25  C         67.2600    6.9290    2.0040 C.2    13  LYS13       0.2617
     26  O         67.4860    7.7370    2.8730 O.2    13  LYS13      -0.2715
     27  CB        65.0410    5.8370    1.7040 C.3    13  LYS13       0.0311
     28  CG        63.6450    5.9740    1.1460 C.3    13  LYS13       0.0038
     29  CD        62.6360    5.1580    1.9370 C.3    13  LYS13       0.0206
     30  CE        62.9490    3.6890    1.8310 C.3    13  LYS13       0.1093
     31  NZ        63.0020    3.2670    0.3950 N.3    13  LYS13      -0.1314
     32  N         68.1230    5.9950    1.6570 N.am   14  SER14      -0.1936
     33  CA        69.4230    5.8680    2.3010 C.3    14  SER14       0.2055
     34  C         70.3480    7.0250    1.9960 C.2    14  SER14       0.2643
     35  O         71.1200    7.4120    2.8330 O.2    14  SER14      -0.2714
     36  CB        70.1100    4.6030    1.8200 C.3    14  SER14       0.2130
     37  OG        69.6850    3.5290    2.5910 O.3    14  SER14      -0.2179
     38  N         70.3090    7.5280    0.7680 N.am   15  THR15      -0.1950
     39  CA        71.2240    8.5760    0.3280 C.3    15  THR15       0.1897
     40  C         70.9230    9.8610    1.0430 C.2    15  THR15       0.2313
     41  O         71.8350   10.6260    1.3390 O.2    15  THR15      -0.2863
     42  CB        71.1280    8.8020   -1.1940 C.3    15  THR15       0.1794
     43  OG1       71.3800    7.5680   -1.8610 O.3    15  THR15      -0.2208
     44  CG2       72.1520    9.8040   -1.6790 C.3    15  THR15       0.0378
     45  N         65.4820    2.7180    8.6980 N.3    35  VAL35      -0.1245
     46  CA        65.0260    2.7530    7.2880 C.3    35  VAL35       0.1561
     47  C         64.2290    1.4870    6.9600 C.2    35  VAL35       0.2260
     48  O         64.6270    0.3860    7.3380 O.2    35  VAL35      -0.2867
     49  CB        66.1680    2.8840    6.2660 C.3    35  VAL35       0.0252
     50  CG1       65.5880    3.0500    4.8970 C.3    35  VAL35       0.0019
     51  CG2       67.0550    4.0810    6.5900 C.3    35  VAL35       0.0019
     52  N         61.8420   -0.1940    3.6140 N.3    37  ASP37      -0.1239
     53  CA        61.2500   -0.1300    2.2850 C.3    37  ASP37       0.1674
     54  C         59.8320   -0.7250    2.3100 C.2    37  ASP37       0.2266
     55  O         59.6310   -1.8370    2.8070 O.2    37  ASP37      -0.2867
     56  CB        62.1200   -0.8940    1.2820 C.3    37  ASP37       0.1410
     57  CG        63.5530   -0.3100    1.1430 C.2    37  ASP37       0.3668
     58  OD1       63.7420    0.9310    1.0760 O.co2  37  ASP37      -0.2456
     59  OD2       64.4930   -1.1290    1.0690 O.co2  37  ASP37      -0.2456
     60  N         63.7480   12.2960   -4.7020 N.3   107  LYS107     -0.1245
     61  CA        64.3610   12.4200   -6.0010 C.3   107  LYS107      0.1561
     62  C         63.7190   13.5590   -6.7580 C.2   107  LYS107      0.2260
     63  O         63.2630   13.3870   -7.8870 O.2   107  LYS107     -0.2867
     64  CB        64.2210   11.0990   -6.7680 C.3   107  LYS107      0.0271
     65  CG        65.1640    9.9930   -6.2280 C.3   107  LYS107      0.0035
     66  CD        65.1400    8.7100   -7.0810 C.3   107  LYS107      0.0206
     67  CE        66.1810    7.7180   -6.6210 C.3   107  LYS107      0.1093
     68  NZ        66.3090    6.5990   -7.5430 N.3   107  LYS107     -0.1314
     69  N         64.8670   16.0090   -8.2120 N.3   109  ASP109     -0.1225
     70  CA        65.5300   16.4270   -9.4400 C.3   109  ASP109      0.1805
     71  C         64.8940   15.7320  -10.6390 C.2   109  ASP109      0.2598
     72  O         65.3550   15.8710  -11.7730 O.2   109  ASP109     -0.2718
     73  CB        67.0290   16.1470   -9.3720 C.3   109  ASP109      0.1424
     74  CG        67.3510   14.7170   -9.0240 C.2   109  ASP109      0.3668
     75  OD1       66.5820   14.0980   -8.2730 O.co2 109  ASP109     -0.2456
     76  OD2       68.3890   14.2060   -9.4700 O.co2 109  ASP109     -0.2456
     77  N         63.8420   14.9690  -10.3690 N.am  110  THR110     -0.1953
     78  CA        63.0310   14.3850  -11.4000 C.3   110  THR110      0.1897
     79  C         61.9650   15.3320  -11.8930 C.2   110  THR110      0.2313
     80  O         61.3350   15.0440  -12.9030 O.2   110  THR110     -0.2863
     81  CB        62.3100   13.1630  -10.8570 C.3   110  THR110      0.1794
     82  OG1       63.2750   12.1540  -10.5870 O.3   110  THR110     -0.2208
     83  CG2       61.3070   12.6210  -11.8560 C.3   110  THR110      0.0378
     84  N         63.1780   16.7850   -2.0350 N.3   154  VAL154     -0.1231
     85  CA        64.5930   16.7490   -1.7510 C.3   154  VAL154      0.1692
     86  C         65.4140   15.9720   -2.7710 C.2   154  VAL154      0.2592
     87  O         64.9080   15.1220   -3.5110 O.2   154  VAL154     -0.2718
     88  CB        64.8630   16.1140   -0.3660 C.3   154  VAL154      0.0266
     89  CG1       64.2120   16.9420    0.7200 C.3   154  VAL154      0.0020
     90  CG2       64.3770   14.6750   -0.3470 C.3   154  VAL154      0.0020
     91  N         66.7030   16.2830   -2.7640 N.am  155  VAL155     -0.1966
     92  CA        67.6920   15.5700   -3.5210 C.3   155  VAL155      0.1727
     93  C         68.7600   15.1450   -2.5210 C.2   155  VAL155      0.2616
     94  O         69.1930   15.9420   -1.6720 O.2   155  VAL155     -0.2715
     95  CB        68.3090   16.4850   -4.5770 C.3   155  VAL155      0.0290
     96  CG1       69.3860   15.7570   -5.3320 C.3   155  VAL155      0.0023
     97  CG2       67.2190   17.0090   -5.5260 C.3   155  VAL155      0.0023
     98  N         69.1610   13.8860   -2.5870 N.am  156  GLY156     -0.1955
     99  CA        70.3090   13.4320   -1.8230 C.3   156  GLY156      0.1869
    100  C         71.4880   13.1270   -2.7340 C.2   156  GLY156      0.2309
    101  O         71.3190   12.6940   -3.8780 O.2   156  GLY156     -0.2863
    102  N         74.7180   16.2290   -7.8490 N.3   166  ARG166     -0.1245
    103  CA        74.5880   15.2090   -8.8960 C.3   166  ARG166      0.1563
    104  C         74.9170   15.7890  -10.2760 C.2   166  ARG166      0.2260
    105  O         74.3770   16.8370  -10.6440 O.2   166  ARG166     -0.2867
    106  CB        73.1540   14.6690   -8.8990 C.3   166  ARG166      0.0307
    107  CG        72.8100   13.8840   -7.6320 C.3   166  ARG166      0.0489
    108  CD        71.3540   13.4250   -7.5590 C.3   166  ARG166      0.2205
    109  NE        70.8860   12.7370   -8.7660 N.pl3 166  ARG166     -0.0865
    110  CZ        71.2580   11.5240   -9.1510 C.cat 166  ARG166      0.5346
    111  NH1       72.1580   10.8210   -8.4670 N.pl3 166  ARG166      0.1354
    112  NH2       70.7340   11.0160  -10.2530 N.pl3 166  ARG166      0.1354
    113  N         74.8550   15.8470  -14.3410 N.3   168  TYR168     -0.1241
    114  CA        74.2520   15.4480  -15.6070 C.3   168  TYR168      0.1605
    115  C         74.8800   16.2980  -16.6710 C.2   168  TYR168      0.2264
    116  O         75.2280   17.4630  -16.4100 O.2   168  TYR168     -0.2867
    117  CB        72.7650   15.7750  -15.6510 C.3   168  TYR168      0.0534
    118  CG        71.9270   15.1580  -14.5880 C.ar  168  TYR168     -0.0201
    119  CD1       71.3310   15.9430  -13.6110 C.ar  168  TYR168     -0.0009
    120  CD2       71.7120   13.7880  -14.5620 C.ar  168  TYR168     -0.0009
    121  CE1       70.5400   15.3850  -12.6290 C.ar  168  TYR168      0.0417
    122  CE2       70.9170   13.2070  -13.5720 C.ar  168  TYR168      0.0417
    123  CZ        70.3390   14.0130  -12.6130 C.ar  168  TYR168      0.1957
    124  OH        69.5600   13.4440  -11.6530 O.3   168  TYR168     -0.2866
@<TRIPOS>BOND
     1   115   116    2
     2   115   114    1
     3   117   114    1
     4   117   118    1
     5   114   113    1
     6   118   120   ar
     7   118   119   ar
     8   120   122   ar
     9   119   121   ar
    10   122   123   ar
    11    80    79    2
    12   121   123   ar
    13   123   124    1
    14    79    78    1
    15    83    81    1
    16    72    71    2
    17    78    81    1
    18    78    77    1
    19    81    82    1
    20   105   104    2
    21    71    77   am
    22    71    70    1
    23   104   103    1
    24   112   110    1
    25    76    74   ar
    26    70    73    1
    27    70    69    1
    28    73    74    1
    29   110   109    2
    30   110   111    1
    31    74    75   ar
    32   106   103    1
    33   106   107    1
    34   103   102    1
    35   109   108    1
    36    63    62    2
    37   107   108    1
    38    68    67    1
    39    66    67    1
    40    66    65    1
    41    64    65    1
    42    64    61    1
    43    62    61    1
    44    61    60    1
    45    10     9    2
    46    97    95    1
    47    18    16    1
    48    96    95    1
    49     9     8    1
    50     9    11   am
    51     8     7    1
    52     4     3    2
    53    95    92    1
    54    16    17    1
    55    16    15    1
    56   101   100    2
    57     3     7   am
    58     3     2    1
    59    11    12    1
    60    12    15    1
    61    12    13    1
    62     6     5    1
    63    92    91    1
    64    92    93    1
    65    87    86    2
    66    13    19   am
    67    13    14    2
    68    19    20    1
    69     5     2    1
    70    86    91   am
    71    86    85    1
    72   100    99    1
    73     2     1    1
    74    98    93   am
    75    98    99    1
    76    93    94    2
    77    20    21    1
    78    84    85    1
    79    43    42    1
    80    85    88    1
    81    44    42    1
    82    42    39    1
    83    21    22    2
    84    21    23   am
    85    88    90    1
    86    88    89    1
    87    23    24    1
    88    39    38    1
    89    39    40    1
    90    31    30    1
    91    38    34   am
    92    40    41    2
    93    59    57   ar
    94    58    57   ar
    95    57    56    1
    96    28    27    1
    97    28    29    1
    98    24    27    1
    99    24    25    1
   100    56    53    1
   101    32    25   am
   102    32    33    1
   103    36    33    1
   104    36    37    1
   105    30    29    1
   106    34    33    1
   107    34    35    2
   108    25    26    2
   109    53    54    1
   110    53    52    1
   111    54    55    2
   112    50    49    1
   113    49    51    1
   114    49    46    1
   115    47    46    1
   116    47    48    2
   117    46    45    1
