@<TRIPOS>MOLECULE
tmp/2qnvA00.pdb
 220 210 0 0 0
SMALL
GASTEIGER

@<TRIPOS>ATOM
      1  N         20.5600   15.5130   24.0780 N.3    37  LEU37      -0.1245
      2  CA        19.6870   16.0700   25.1050 C.3    37  LEU37       0.1561
      3  C         20.4820   16.4810   26.3400 C.2    37  LEU37       0.2260
      4  O         21.1460   17.5170   26.3460 O.2    37  LEU37      -0.2867
      5  CB        18.6020   15.0620   25.4890 C.3    37  LEU37       0.0270
      6  CG        17.5280   14.7870   24.4350 C.3    37  LEU37       0.0019
      7  CD1       16.4510   13.8680   24.9920 C.3    37  LEU37       0.0001
      8  CD2       16.9210   16.0890   23.9340 C.3    37  LEU37       0.0001
      9  N         18.5210   16.5760   29.4620 N.3    39  VAL39      -0.1245
     10  CA        17.4790   17.3410   30.1370 C.3    39  VAL39       0.1561
     11  C         17.3340   16.9100   31.5920 C.2    39  VAL39       0.2260
     12  O         17.2190   15.7210   31.8890 O.2    39  VAL39      -0.2867
     13  CB        16.1200   17.1910   29.4280 C.3    39  VAL39       0.0252
     14  CG1       15.5960   18.5510   28.9940 C.3    39  VAL39       0.0019
     15  CG2       16.2440   16.2540   28.2370 C.3    39  VAL39       0.0019
     16  N         13.8730    8.5710   30.2080 N.3    60  LEU60      -0.1231
     17  CA        12.9890    9.7300   30.2380 C.3    60  LEU60       0.1693
     18  C         11.9760    9.6810   29.1000 C.2    60  LEU60       0.2591
     19  O         11.3050   10.6720   28.8090 O.2    60  LEU60      -0.2718
     20  CB        13.8010   11.0250   30.1630 C.3    60  LEU60       0.0284
     21  CG        13.7960   11.9020   31.4170 C.3    60  LEU60       0.0019
     22  CD1       14.8630   12.9810   31.3230 C.3    60  LEU60       0.0001
     23  CD2       12.4230   12.5170   31.6380 C.3    60  LEU60       0.0001
     24  N         11.8690    8.5210   28.4590 N.am   61  LEU61      -0.1980
     25  CA        11.0040    8.3660   27.2950 C.3    61  LEU61       0.1596
     26  C          9.5350    8.3210   27.7010 C.2    61  LEU61       0.2287
     27  O          8.7370    9.1550   27.2740 O.2    61  LEU61      -0.2864
     28  CB        11.3740    7.1010   26.5190 C.3    61  LEU61       0.0297
     29  CG        12.2050    7.3020   25.2500 C.3    61  LEU61       0.0022
     30  CD1       12.5100    5.9670   24.5890 C.3    61  LEU61       0.0001
     31  CD2       11.4920    8.2330   24.2820 C.3    61  LEU61       0.0001
     32  N          8.2510   11.7060   28.7320 N.3    64  MET64      -0.1230
     33  CA         8.1800   12.6350   27.6170 C.3    64  MET64       0.1702
     34  C          6.9870   12.2640   26.7250 C.2    64  MET64       0.2592
     35  O          6.3330   13.1360   26.1500 O.2    64  MET64      -0.2718
     36  CB         9.5020   12.6100   26.8370 C.3    64  MET64       0.0401
     37  CG        10.0380   13.9980   26.4760 C.3    64  MET64       0.0596
     38  SD         9.8560   15.1960   27.8110 S.3    64  MET64      -0.1393
     39  CE        10.9490   14.5280   29.0250 C.3    64  MET64       0.0692
     40  N          6.7000   10.9660   26.6390 N.am   65  ALA65      -0.1980
     41  CA         5.5800   10.4590   25.8460 C.3    65  ALA65       0.1597
     42  C          4.2480   10.8220   26.5060 C.2    65  ALA65       0.2287
     43  O          3.2340   10.9760   25.8300 O.2    65  ALA65      -0.2864
     44  CB         5.6890    8.9290   25.6750 C.3    65  ALA65       0.0319
     45  N          3.8000   14.5550   25.8910 N.3    68  SER68      -0.1217
     46  CA         3.4040   14.6790   24.5010 C.3    68  SER68       0.1889
     47  C          1.9220   14.4040   24.2850 C.2    68  SER68       0.2288
     48  O          1.2540   15.1360   23.5390 O.2    68  SER68      -0.2866
     49  CB         4.2500   13.7510   23.6260 C.3    68  SER68       0.2089
     50  OG         5.4610   14.3890   23.2620 O.3    68  SER68      -0.2183
     51  N         -0.7050   16.8230   22.8410 N.3    72  PHE72      -0.1241
     52  CA        -1.4810   16.4890   21.6530 C.3    72  PHE72       0.1605
     53  C         -2.9630   16.7060   21.9430 C.2    72  PHE72       0.2264
     54  O         -3.6700   17.3790   21.1850 O.2    72  PHE72      -0.2867
     55  CB        -1.2370   15.0290   21.2380 C.3    72  PHE72       0.0534
     56  CG         0.1320   14.7750   20.6470 C.ar   72  PHE72      -0.0203
     57  CD1        0.8700   13.6420   21.0080 C.ar   72  PHE72      -0.0042
     58  CD2        0.6820   15.6540   19.7140 C.ar   72  PHE72      -0.0042
     59  CE1        2.1370   13.3920   20.4500 C.ar   72  PHE72      -0.0003
     60  CE2        1.9500   15.4120   19.1480 C.ar   72  PHE72      -0.0003
     61  CZ         2.6750   14.2830   19.5180 C.ar   72  PHE72      -0.0000
     62  N          2.7520   17.1640   15.7720 N.3   102  PHE102     -0.1241
     63  CA         4.0960   17.4900   16.2350 C.3   102  PHE102      0.1605
     64  C          4.4070   18.9910   16.1880 C.2   102  PHE102      0.2264
     65  O          4.8940   19.5730   17.1600 O.2   102  PHE102     -0.2867
     66  CB         5.1440   16.7530   15.3950 C.3   102  PHE102      0.0534
     67  CG         6.5640   17.0320   15.8190 C.ar  102  PHE102     -0.0203
     68  CD1        7.0560   16.5010   17.0030 C.ar  102  PHE102     -0.0042
     69  CD2        7.3880   17.8630   15.0610 C.ar  102  PHE102     -0.0042
     70  CE1        8.3500   16.7930   17.4350 C.ar  102  PHE102     -0.0003
     71  CE2        8.6910   18.1660   15.4790 C.ar  102  PHE102     -0.0003
     72  CZ         9.1760   17.6320   16.6690 C.ar  102  PHE102     -0.0000
     73  N          5.1560   21.7240   19.2850 N.3   106  GLN106     -0.1245
     74  CA         6.4120   22.4540   19.3790 C.3   106  GLN106      0.1566
     75  C          6.1860   23.9620   19.3570 C.2   106  GLN106      0.2260
     76  O          6.9330   24.7290   19.9850 O.2   106  GLN106     -0.2867
     77  CB         7.3420   22.0660   18.2300 C.3   106  GLN106      0.0367
     78  CG         7.9900   20.7050   18.3870 C.3   106  GLN106      0.0905
     79  CD         8.6120   20.5310   19.7480 C.2   106  GLN106      0.2608
     80  OE1        8.0380   19.8970   20.6210 O.2   106  GLN106     -0.2717
     81  NE2        9.7850   21.1120   19.9440 N.am  106  GLN106     -0.0878
     82  N          4.9740   24.6640   22.7940 N.3   109  PHE109     -0.1241
     83  CA         6.0640   24.3820   23.7150 C.3   109  PHE109      0.1605
     84  C          7.0690   25.5330   23.6620 C.2   109  PHE109      0.2264
     85  O          7.7390   25.8190   24.6460 O.2   109  PHE109     -0.2867
     86  CB         6.7190   23.0470   23.3260 C.3   109  PHE109      0.0534
     87  CG         7.4420   22.3550   24.4530 C.ar  109  PHE109     -0.0203
     88  CD1        6.8080   22.1230   25.6700 C.ar  109  PHE109     -0.0042
     89  CD2        8.7620   21.9030   24.2790 C.ar  109  PHE109     -0.0042
     90  CE1        7.4760   21.4480   26.7080 C.ar  109  PHE109     -0.0003
     91  CE2        9.4450   21.2240   25.3020 C.ar  109  PHE109     -0.0003
     92  CZ         8.8010   20.9970   26.5230 C.ar  109  PHE109     -0.0000
     93  N         12.3290   24.7530   29.6780 N.3   120  TRP120     -0.1241
     94  CA        10.9090   24.7790   29.3530 C.3   120  TRP120      0.1605
     95  C         10.0900   24.8130   30.6480 C.2   120  TRP120      0.2264
     96  O         10.0010   23.8220   31.3780 O.2   120  TRP120     -0.2867
     97  CB        10.5410   23.5530   28.5250 C.3   120  TRP120      0.0550
     98  CG        10.9760   23.6440   27.1020 C.ar  120  TRP120      0.0003
     99  CD1       10.2810   24.2090   26.0660 C.ar  120  TRP120      0.0946
    100  CD2       12.1890   23.1250   26.5340 C.ar  120  TRP120      0.0152
    101  NE1       10.9770   24.0610   24.8870 N.ar  120  TRP120     -0.2442
    102  CE2       12.1490   23.4010   25.1460 C.ar  120  TRP120      0.0810
    103  CE3       13.3030   22.4540   27.0590 C.ar  120  TRP120      0.0012
    104  CZ2       13.1830   23.0250   24.2820 C.ar  120  TRP120      0.0191
    105  CZ3       14.3320   22.0820   26.1940 C.ar  120  TRP120      0.0001
    106  CH2       14.2630   22.3670   24.8250 C.ar  120  TRP120      0.0015
    107  N         11.8080   21.5260   32.4020 N.3   127  TYR127     -0.1241
    108  CA        12.7310   20.7210   31.6150 C.3   127  TYR127      0.1605
    109  C         13.9270   21.6070   31.3130 C.2   127  TYR127      0.2264
    110  O         13.8870   22.4300   30.4000 O.2   127  TYR127     -0.2867
    111  CB        12.0870   20.2450   30.3190 C.3   127  TYR127      0.0534
    112  CG        10.8760   19.3790   30.5450 C.ar  127  TYR127     -0.0201
    113  CD1        9.5980   19.9190   30.4990 C.ar  127  TYR127     -0.0009
    114  CD2       11.0090   18.0190   30.8060 C.ar  127  TYR127     -0.0009
    115  CE1        8.4760   19.1280   30.7050 C.ar  127  TYR127      0.0417
    116  CE2        9.8980   17.2190   31.0140 C.ar  127  TYR127      0.0417
    117  CZ         8.6300   17.7780   30.9600 C.ar  127  TYR127      0.1957
    118  OH         7.5280   16.9830   31.1630 O.3   127  TYR127     -0.2866
    119  N         21.5690   20.8620   17.0790 N.3   136  GLU136     -0.1245
    120  CA        20.3650   20.0560   17.0930 C.3   136  GLU136      0.1567
    121  C         19.2890   20.9150   16.4580 C.2   136  GLU136      0.2260
    122  O         18.9060   21.9600   16.9800 O.2   136  GLU136     -0.2867
    123  CB        19.9850   19.6730   18.5120 C.3   136  GLU136      0.0388
    124  CG        18.7880   18.7740   18.5440 C.3   136  GLU136      0.1160
    125  CD        18.9790   17.5920   17.6350 C.2   136  GLU136      0.3649
    126  OE1       18.0230   17.2210   16.9210 O.co2 136  GLU136     -0.2457
    127  OE2       20.0940   17.0330   17.6420 O.co2 136  GLU136     -0.2457
    128  N         15.9440   20.8300   16.1590 N.3   138  MET138     -0.1230
    129  CA        14.8420   21.2150   17.0230 C.3   138  MET138      0.1702
    130  C         15.2540   22.2610   18.0490 C.2   138  MET138      0.2592
    131  O         14.4570   23.1070   18.4250 O.2   138  MET138     -0.2718
    132  CB        14.2870   20.0040   17.7620 C.3   138  MET138      0.0401
    133  CG        12.9860   20.2810   18.5140 C.3   138  MET138      0.0596
    134  SD        11.5410   20.6520   17.4520 S.3   138  MET138     -0.1393
    135  CE        11.9680   22.2280   16.7860 C.3   138  MET138      0.0692
    136  N         16.5000   22.2000   18.5030 N.am  139  LEU139     -0.1980
    137  CA        17.0100   23.1490   19.4900 C.3   139  LEU139      0.1596
    138  C         17.2380   24.5380   18.8660 C.2   139  LEU139      0.2287
    139  O         16.7960   25.5540   19.4120 O.2   139  LEU139     -0.2864
    140  CB        18.3200   22.6300   20.0900 C.3   139  LEU139      0.0297
    141  CG        18.5540   22.7610   21.5950 C.3   139  LEU139      0.0022
    142  CD1       17.4790   23.6280   22.2230 C.3   139  LEU139      0.0001
    143  CD2       18.5590   21.3600   22.2030 C.3   139  LEU139      0.0001
    144  N         13.9130   26.3000   18.4230 N.3   142  HIS142     -0.1241
    145  CA        13.3230   26.9370   19.5810 C.3   142  HIS142      0.1621
    146  C         13.9920   28.2540   19.9260 C.2   142  HIS142      0.2264
    147  O         13.3170   29.2110   20.3320 O.2   142  HIS142     -0.2867
    148  CB        13.3380   25.9820   20.7780 C.3   142  HIS142      0.0745
    149  CG        12.1310   25.0970   20.8440 C.ar  142  HIS142      0.0817
    150  ND1       10.8790   25.5760   21.1630 N.ar  142  HIS142     -0.2268
    151  CD2       11.9680   23.7840   20.5540 C.ar  142  HIS142      0.1154
    152  CE1        9.9960   24.5980   21.0640 C.ar  142  HIS142      0.1986
    153  NE2       10.6310   23.5000   20.6950 N.ar  142  HIS142     -0.2212
    154  N         12.0540   13.8750   12.8830 N.3   222  HIS222     -0.1241
    155  CA        11.7920   13.3940   14.2330 C.3   222  HIS222      0.1621
    156  C         10.8240   12.2320   14.2190 C.2   222  HIS222      0.2264
    157  O         11.0030   11.2770   14.9670 O.2   222  HIS222     -0.2867
    158  CB        11.2450   14.5150   15.1160 C.3   222  HIS222      0.0745
    159  CG        12.3060   15.2600   15.8630 C.ar  222  HIS222      0.0817
    160  ND1       12.6740   14.9340   17.1510 N.ar  222  HIS222     -0.2268
    161  CD2       13.1070   16.2860   15.4890 C.ar  222  HIS222      0.1154
    162  CE1       13.6570   15.7280   17.5370 C.ar  222  HIS222      0.1986
    163  NE2       13.9400   16.5570   16.5470 N.ar  222  HIS222     -0.2212
    164  N         12.9780    9.3580   13.4730 N.3   225  ARG225     -0.1231
    165  CA        13.8030    9.0430   14.6350 C.3   225  ARG225      0.1694
    166  C         12.9630    8.3750   15.7170 C.2   225  ARG225      0.2591
    167  O         13.4260    7.4440   16.3740 O.2   225  ARG225     -0.2718
    168  CB        14.4610   10.3060   15.2080 C.3   225  ARG225      0.0321
    169  CG        15.7440   10.7260   14.4910 C.3   225  ARG225      0.0489
    170  CD        16.1530   12.1630   14.8230 C.3   225  ARG225      0.2205
    171  NE        16.6620   12.3400   16.1810 N.pl3 225  ARG225     -0.0865
    172  CZ        17.1210   13.5000   16.6480 C.cat 225  ARG225      0.5346
    173  NH1       17.1260   14.5700   15.8630 N.pl3 225  ARG225      0.1354
    174  NH2       17.5780   13.5960   17.8910 N.pl3 225  ARG225      0.1354
    175  N         11.7250    8.8410   15.8920 N.am  226  LEU226     -0.1980
    176  CA        10.8460    8.2800   16.9170 C.3   226  LEU226      0.1596
    177  C         10.3420    6.8830   16.5800 C.2   226  LEU226      0.2287
    178  O         10.3130    6.0160   17.4450 O.2   226  LEU226     -0.2864
    179  CB         9.6640    9.2180   17.1910 C.3   226  LEU226      0.0297
    180  CG         9.9350   10.4000   18.1410 C.3   226  LEU226      0.0022
    181  CD1        8.8090   11.4460   17.9780 C.3   226  LEU226      0.0001
    182  CD2       10.0700    9.9150   19.6060 C.3   226  LEU226      0.0001
    183  N         13.0610    4.3530   17.3630 N.3   229  ILE229     -0.1245
    184  CA        13.2170    4.0440   18.7760 C.3   229  ILE229      0.1561
    185  C         12.0360    3.2220   19.2720 C.2   229  ILE229      0.2260
    186  O         12.1690    2.4430   20.2100 O.2   229  ILE229     -0.2867
    187  CB        13.3120    5.3220   19.6210 C.3   229  ILE229      0.0252
    188  CG1       14.4150    6.2170   19.0740 C.3   229  ILE229      0.0019
    189  CG2       13.6170    4.9760   21.0650 C.3   229  ILE229      0.0019
    190  CD1       14.4790    7.5750   19.7450 C.3   229  ILE229      0.0001
    191  N          7.4610    2.6760   23.6090 N.3   235  PHE235     -0.1241
    192  CA         7.1870    3.6430   24.6700 C.3   235  PHE235      0.1605
    193  C          5.9550    4.4840   24.3340 C.2   235  PHE235      0.2264
    194  O          5.2370    4.9420   25.2240 O.2   235  PHE235     -0.2867
    195  CB         8.3910    4.5640   24.8440 C.3   235  PHE235      0.0534
    196  CG         8.6530    5.4330   23.6590 C.ar  235  PHE235     -0.0203
    197  CD1        8.0510    6.6790   23.5460 C.ar  235  PHE235     -0.0042
    198  CD2        9.4780    5.0030   22.6350 C.ar  235  PHE235     -0.0042
    199  CE1        8.2660    7.4840   22.4300 C.ar  235  PHE235     -0.0003
    200  CE2        9.6960    5.8050   21.5140 C.ar  235  PHE235     -0.0003
    201  CZ         9.0870    7.0470   21.4160 C.ar  235  PHE235     -0.0000
    202  N         -0.4180    8.3110   20.6490 N.3   240  MET240     -0.1245
    203  CA         0.7260    8.5340   19.7670 C.3   240  MET240      0.1570
    204  C          0.7550    7.4890   18.6610 C.2   240  MET240      0.2261
    205  O          1.1850    7.7710   17.5450 O.2   240  MET240     -0.2867
    206  CB         2.0260    8.4650   20.5560 C.3   240  MET240      0.0387
    207  CG         2.2960    9.7000   21.3780 C.3   240  MET240      0.0595
    208  SD         3.6460    9.4360   22.5120 S.3   240  MET240     -0.1393
    209  CE         4.9820    9.0700   21.3660 C.3   240  MET240      0.0692
    210  N          0.9440    8.4790   14.8780 N.3   244  PHE244     -0.1241
    211  CA         2.0480    8.0190   14.0400 C.3   244  PHE244      0.1605
    212  C          1.6930    6.7650   13.2320 C.2   244  PHE244      0.2264
    213  O          2.5600    6.1250   12.6340 O.2   244  PHE244     -0.2867
    214  CB         3.2890    7.7770   14.9090 C.3   244  PHE244      0.0534
    215  CG         3.8860    9.0420   15.4780 C.ar  244  PHE244     -0.0203
    216  CD1        4.6610    9.0040   16.6330 C.ar  244  PHE244     -0.0042
    217  CD2        3.6630   10.2770   14.8620 C.ar  244  PHE244     -0.0042
    218  CE1        5.2040   10.1800   17.1690 C.ar  244  PHE244     -0.0003
    219  CE2        4.2010   11.4600   15.3880 C.ar  244  PHE244     -0.0003
    220  CZ         4.9720   11.4120   16.5430 C.ar  244  PHE244     -0.0000
@<TRIPOS>BOND
     1   213   212    2
     2   154   155    1
     3   212   211    1
     4   164   165    1
     5   211   210    1
     6   211   214    1
     7   156   155    1
     8   156   157    2
     9   155   158    1
    10   169   170    1
    11   169   168    1
    12   165   168    1
    13   165   166    1
    14   170   171    1
    15   217   219   ar
    16   217   215   ar
    17   214   215    1
    18    69    71   ar
    19    69    67   ar
    20   158   159    1
    21   219   220   ar
    22    66    67    1
    23    66    63    1
    24   215   216   ar
    25    71    72   ar
    26   161   159   ar
    27   161   163   ar
    28   166   175   am
    29   166   167    2
    30    62    63    1
    31    67    68   ar
    32   159   160   ar
    33   173   172    1
    34   175   176    1
    35   128   129    1
    36   171   172    2
    37    64    63    1
    38    64    65    2
    39   121   122    2
    40   121   120    1
    41   220   218   ar
    42   163   162   ar
    43   177   176    1
    44   177   178    2
    45   216   218   ar
    46   172   174    1
    47    72    70   ar
    48   135   134    1
    49   176   179    1
    50   126   125   ar
    51    68    70   ar
    52   129   132    1
    53   129   130    1
    54   119   120    1
    55   120   123    1
    56   160   162   ar
    57   179   180    1
    58   183   184    1
    59   134   133    1
    60   205   204    2
    61   125   127   ar
    62   125   124    1
    63   132   133    1
    64   181   180    1
    65   130   131    2
    66   130   136   am
    67   180   182    1
    68    77    78    1
    69    77    74    1
    70    78    79    1
    71   144   145    1
    72   136   137    1
    73   123   124    1
    74   204   203    1
    75   184   185    1
    76   184   187    1
    77   138   139    2
    78   138   137    1
    79   188   187    1
    80   188   190    1
    81    60    61   ar
    82    60    58   ar
    83   185   186    2
    84    73    74    1
    85    75    74    1
    86    75    76    2
    87   137   140    1
    88    61    59   ar
    89   145   146    1
    90   145   148    1
    91   187   189    1
    92    58    56   ar
    93    79    81   am
    94    79    80    2
    95   203   206    1
    96   203   202    1
    97   146   147    2
    98   140   141    1
    99    59    57   ar
   100   151   153   ar
   101   151   149   ar
   102   206   207    1
   103    56    57   ar
   104    56    55    1
   105   153   152   ar
   106   148   149    1
   107   149   150   ar
   108   152   150   ar
   109    54    53    2
   110    55    52    1
   111   209   208    1
   112   207   208    1
   113   201   200   ar
   114   201   199   ar
   115   200   198   ar
   116   141   143    1
   117   141   142    1
   118    52    53    1
   119    52    51    1
   120   199   197   ar
   121   198   196   ar
   122    82    83    1
   123    50    49    1
   124    86    83    1
   125    86    87    1
   126    48    47    2
   127   197   196   ar
   128   191   192    1
   129    49    46    1
   130   196   195    1
   131    84    83    1
   132    84    85    2
   133     8     6    1
   134     1     2    1
   135    89    87   ar
   136    89    91   ar
   137   104   106   ar
   138   104   102   ar
   139    31    29    1
   140    47    46    1
   141   193   192    1
   142   193   194    2
   143     6     7    1
   144     6     5    1
   145    87    88   ar
   146    46    45    1
   147    30    29    1
   148   192   195    1
   149   106   105   ar
   150   101   102   ar
   151   101    99   ar
   152     2     5    1
   153     2     3    1
   154   102   100   ar
   155    29    28    1
   156    91    92   ar
   157    88    90   ar
   158    44    41    1
   159    43    42    2
   160    41    42    1
   161    41    40    1
   162    99    98   ar
   163    35    34    2
   164   105   103   ar
   165     3     4    2
   166    37    36    1
   167    37    38    1
   168    28    25    1
   169    92    90   ar
   170   100   103   ar
   171   100    98   ar
   172    40    34   am
   173    34    33    1
   174    36    33    1
   175    98    97    1
   176    27    26    2
   177    25    26    1
   178    25    24    1
   179    33    32    1
   180    38    39    1
   181    15    13    1
   182    24    18   am
   183    97    94    1
   184    19    18    2
   185    14    13    1
   186    18    17    1
   187    94    93    1
   188    94    95    1
   189    13    10    1
   190     9    10    1
   191    10    11    1
   192    20    17    1
   193    20    21    1
   194    16    17    1
   195   111   112    1
   196   111   108    1
   197   110   109    2
   198   113   112   ar
   199   113   115   ar
   200   112   114   ar
   201    95    96    2
   202   115   117   ar
   203   114   116   ar
   204   117   116   ar
   205   117   118    1
   206   109   108    1
   207    22    21    1
   208    21    23    1
   209    11    12    2
   210   108   107    1
