@<TRIPOS>MOLECULE
tmp/2qnxA01.pdb
 173 167 0 0 0
SMALL
GASTEIGER

@<TRIPOS>ATOM
      1  N         29.7840   35.0260   31.8230 N.3    91  ASN91      -0.1225
      2  CA        29.8190   36.3940   32.3400 C.3    91  ASN91       0.1785
      3  C         30.8920   37.2130   31.6340 C.2    91  ASN91       0.2597
      4  O         31.0380   38.4060   31.8880 O.2    91  ASN91      -0.2718
      5  CB        30.0970   36.4060   33.8450 C.3    91  ASN91       0.1169
      6  CG        29.0790   35.6160   34.6390 C.2    91  ASN91       0.2627
      7  OD1       27.9280   36.0390   34.7990 O.2    91  ASN91      -0.2716
      8  ND2       29.5050   34.4660   35.1640 N.am   91  ASN91      -0.0877
      9  N         31.6530   36.5760   30.7540 N.am   92  THR92      -0.1953
     10  CA        32.7430   37.2740   30.0760 C.3    92  THR92       0.1897
     11  C         32.6700   37.2180   28.5440 C.2    92  THR92       0.2313
     12  O         33.6890   37.0630   27.8630 O.2    92  THR92      -0.2863
     13  CB        34.1430   36.8490   30.6150 C.3    92  THR92       0.1794
     14  OG1       34.2710   35.4260   30.5990 O.3    92  THR92      -0.2208
     15  CG2       34.3420   37.3540   32.0320 C.3    92  THR92       0.0378
     16  N         32.1860   39.6810   25.7860 N.3    94  PHE94      -0.1241
     17  CA        32.4060   41.1280   25.8320 C.3    94  PHE94       0.1605
     18  C         31.7770   41.9050   24.6790 C.2    94  PHE94       0.2264
     19  O         32.3060   42.9350   24.2450 O.2    94  PHE94      -0.2867
     20  CB        33.9030   41.4310   25.9760 C.3    94  PHE94       0.0534
     21  CG        34.5190   40.8090   27.1900 C.ar   94  PHE94      -0.0203
     22  CD1       35.5820   39.9290   27.0710 C.ar   94  PHE94      -0.0042
     23  CD2       34.0150   41.0770   28.4550 C.ar   94  PHE94      -0.0042
     24  CE1       36.1460   39.3420   28.1980 C.ar   94  PHE94      -0.0003
     25  CE2       34.5680   40.4930   29.5760 C.ar   94  PHE94      -0.0003
     26  CZ        35.6380   39.6310   29.4480 C.ar   94  PHE94      -0.0000
     27  N         25.2090   35.0610   36.7520 N.3   121  GLY121     -0.1210
     28  CA        26.3700   34.9750   37.6320 C.3   121  GLY121      0.1956
     29  C         26.8980   33.5610   37.6440 C.2   121  GLY121      0.2612
     30  O         27.0200   32.9250   36.5940 O.2   121  GLY121     -0.2717
     31  N         27.1760   33.0500   38.8360 N.am  122  CYS122     -0.1970
     32  CA        27.6510   31.6870   38.9530 C.3   122  CYS122      0.1712
     33  C         26.5210   30.7310   39.2830 C.2   122  CYS122      0.2296
     34  O         26.7480   29.6400   39.8000 O.2   122  CYS122     -0.2864
     35  CB        28.7900   31.6020   39.9580 C.3   122  CYS122      0.0983
     36  SG        30.1810   32.6130   39.4410 S.3   122  CYS122     -0.0798
     37  N         37.9350   35.4690   32.5170 N.3   152  LEU152     -0.1245
     38  CA        37.9400   36.4520   33.5980 C.3   152  LEU152      0.1561
     39  C         39.2450   37.2440   33.7060 C.2   152  LEU152      0.2260
     40  O         39.2440   38.3830   34.1750 O.2   152  LEU152     -0.2867
     41  CB        37.6270   35.7700   34.9330 C.3   152  LEU152      0.0270
     42  CG        36.1940   35.2970   35.1870 C.3   152  LEU152      0.0019
     43  CD1       36.1650   34.0950   36.1210 C.3   152  LEU152      0.0001
     44  CD2       35.3490   36.4230   35.7330 C.3   152  LEU152      0.0001
     45  N         39.5340   41.0420   33.3380 N.3   155  THR155     -0.1218
     46  CA        38.6800   41.8420   34.2190 C.3   155  THR155      0.1862
     47  C         39.2510   41.9890   35.6320 C.2   155  THR155      0.2287
     48  O         38.6490   42.6450   36.4930 O.2   155  THR155     -0.2866
     49  CB        37.2490   41.2690   34.3000 C.3   155  THR155      0.1770
     50  OG1       37.2250   40.1510   35.1940 O.3   155  THR155     -0.2211
     51  CG2       36.7580   40.8370   32.9250 C.3   155  THR155      0.0375
     52  N         39.9130   34.7440   40.4150 N.3   167  PHE167     -0.1241
     53  CA        39.3370   34.4140   39.1260 C.3   167  PHE167      0.1605
     54  C         40.3620   33.8360   38.1340 C.2   167  PHE167      0.2264
     55  O         41.5630   34.0930   38.2330 O.2   167  PHE167     -0.2867
     56  CB        38.5580   35.6180   38.5830 C.3   167  PHE167      0.0534
     57  CG        37.4520   36.0810   39.5110 C.ar  167  PHE167     -0.0203
     58  CD1       37.6590   37.1340   40.3990 C.ar  167  PHE167     -0.0042
     59  CD2       36.2150   35.4390   39.5220 C.ar  167  PHE167     -0.0042
     60  CE1       36.6430   37.5520   41.2680 C.ar  167  PHE167     -0.0003
     61  CE2       35.1910   35.8540   40.3830 C.ar  167  PHE167     -0.0003
     62  CZ        35.4070   36.9070   41.2560 C.ar  167  PHE167     -0.0000
     63  N         28.9020   41.3200   44.3140 N.3   199  ILE199     -0.1231
     64  CA        29.7480   40.9220   43.1900 C.3   199  ILE199      0.1692
     65  C         29.2700   41.6770   41.9660 C.2   199  ILE199      0.2592
     66  O         28.1080   41.5450   41.5600 O.2   199  ILE199     -0.2718
     67  CB        29.6610   39.4150   42.9010 C.3   199  ILE199      0.0266
     68  CG1       29.8630   38.6130   44.1870 C.3   199  ILE199      0.0019
     69  CG2       30.6800   39.0230   41.8190 C.3   199  ILE199      0.0020
     70  CD1       29.2470   37.2330   44.1750 C.3   199  ILE199      0.0001
     71  N         30.1730   42.4610   41.3790 N.am  200  ARG200     -0.1966
     72  CA        29.7920   43.4210   40.3500 C.3   200  ARG200      0.1729
     73  C         30.9470   43.9240   39.4840 C.2   200  ARG200      0.2616
     74  O         32.1260   43.7650   39.8140 O.2   200  ARG200     -0.2715
     75  CB        29.1150   44.6300   41.0050 C.3   200  ARG200      0.0348
     76  CG        30.1060   45.5810   41.6440 C.3   200  ARG200      0.0492
     77  CD        29.4660   46.4850   42.6630 C.3   200  ARG200      0.2205
     78  NE        30.2460   47.7080   42.8140 N.pl3 200  ARG200     -0.0865
     79  CZ        31.3040   47.8520   43.6060 C.cat 200  ARG200      0.5346
     80  NH1       31.7450   46.8480   44.3560 N.pl3 200  ARG200      0.1354
     81  NH2       31.9230   49.0250   43.6420 N.pl3 200  ARG200      0.1354
     82  N         30.5710   44.5350   38.3670 N.am  201  GLN201     -0.1977
     83  CA        31.4550   45.3620   37.5690 C.3   201  GLN201      0.1601
     84  C         31.2020   46.7890   38.0470 C.2   201  GLN201      0.2287
     85  O         30.0750   47.2850   37.9560 O.2   201  GLN201     -0.2864
     86  CB        31.0990   45.1960   36.0920 C.3   201  GLN201      0.0394
     87  CG        31.7410   46.2010   35.1520 C.3   201  GLN201      0.0908
     88  CD        31.4920   45.8790   33.6900 C.2   201  GLN201      0.2608
     89  OE1       31.3830   44.7170   33.3130 O.2   201  GLN201     -0.2717
     90  NE2       31.4110   46.9130   32.8580 N.am  201  GLN201     -0.0878
     91  N         29.7290   49.7960   31.0750 N.3   205  TRP205     -0.1241
     92  CA        30.4840   50.0520   29.8640 C.3   205  TRP205      0.1605
     93  C         30.1230   51.3800   29.1940 C.2   205  TRP205      0.2264
     94  O         30.9860   52.0290   28.6130 O.2   205  TRP205     -0.2867
     95  CB        30.3100   48.9070   28.8770 C.3   205  TRP205      0.0550
     96  CG        30.8930   47.5940   29.3160 C.ar  205  TRP205      0.0003
     97  CD1       30.2040   46.4480   29.5730 C.ar  205  TRP205      0.0946
     98  CD2       32.2830   47.2840   29.5340 C.ar  205  TRP205      0.0152
     99  NE1       31.0690   45.4430   29.9350 N.ar  205  TRP205     -0.2442
    100  CE2       32.3500   45.9280   29.9230 C.ar  205  TRP205      0.0810
    101  CE3       33.4730   48.0160   29.4320 C.ar  205  TRP205      0.0012
    102  CZ2       33.5620   45.2880   30.2170 C.ar  205  TRP205      0.0191
    103  CZ3       34.6780   47.3780   29.7250 C.ar  205  TRP205      0.0001
    104  CH2       34.7110   46.0290   30.1110 C.ar  205  TRP205      0.0015
    105  N         39.0450   52.6240   34.2940 N.3   216  ARG216     -0.1231
    106  CA        38.3590   51.5730   33.5510 C.3   216  ARG216      0.1679
    107  C         37.7150   50.5600   34.5020 C.2   216  ARG216      0.2434
    108  O         38.1760   50.4010   35.6340 O.2   216  ARG216     -0.2733
    109  CB        39.3370   50.8680   32.6060 C.3   216  ARG216      0.0321
    110  CG        40.4530   50.0980   33.2850 C.3   216  ARG216      0.0489
    111  CD        40.8090   48.8570   32.4870 C.3   216  ARG216      0.2205
    112  NE        39.9640   47.7150   32.8260 N.pl3 216  ARG216     -0.0865
    113  CZ        39.9460   46.5650   32.1600 C.cat 216  ARG216      0.5346
    114  NH1       40.7250   46.3950   31.1020 N.pl3 216  ARG216      0.1354
    115  NH2       39.1390   45.5830   32.5470 N.pl3 216  ARG216      0.1354
    116  N         36.6500   49.8670   34.0460 N.am  217  PRO217     -0.2718
    117  CA        35.9220   48.9470   34.9230 C.3   217  PRO217      0.1535
    118  C         36.7170   47.6930   35.2550 C.2   217  PRO217      0.2599
    119  O         37.5610   47.2640   34.4680 O.2   217  PRO217     -0.2715
    120  CB        34.6870   48.5680   34.0950 C.3   217  PRO217      0.0310
    121  CG        34.6380   49.5610   32.9830 C.3   217  PRO217      0.0237
    122  CD        36.0520   49.9060   32.7030 C.3   217  PRO217      0.0939
    123  N         36.4360   47.1230   36.4230 N.am  218  PHE218     -0.1960
    124  CA        37.0310   45.8620   36.8580 C.3   218  PHE218      0.1771
    125  C         35.9880   45.0600   37.6250 C.2   218  PHE218      0.2619
    126  O         34.8870   45.5660   37.9020 O.2   218  PHE218     -0.2715
    127  CB        38.2570   46.1140   37.7410 C.3   218  PHE218      0.0574
    128  CG        39.4870   46.5520   36.9810 C.ar  218  PHE218     -0.0200
    129  CD1       40.1710   45.6620   36.1590 C.ar  218  PHE218     -0.0042
    130  CD2       39.9750   47.8480   37.1110 C.ar  218  PHE218     -0.0042
    131  CE1       41.3030   46.0670   35.4670 C.ar  218  PHE218     -0.0003
    132  CE2       41.1150   48.2590   36.4270 C.ar  218  PHE218     -0.0003
    133  CZ        41.7800   47.3690   35.6080 C.ar  218  PHE218     -0.0000
    134  N         36.3170   43.8080   37.9450 N.am  219  VAL219     -0.1977
    135  CA        35.4500   42.9740   38.7930 C.3   219  VAL219      0.1596
    136  C         35.7230   43.3140   40.2610 C.2   219  VAL219      0.2287
    137  O         36.8770   43.3060   40.7020 O.2   219  VAL219     -0.2864
    138  CB        35.6110   41.4440   38.4980 C.3   219  VAL219      0.0276
    139  CG1       37.0520   40.9670   38.7350 C.3   219  VAL219      0.0022
    140  CG2       34.6230   40.6160   39.3030 C.3   219  VAL219      0.0022
    141  N         29.7060   25.3510   43.3060 N.3   258  HIS258     -0.1241
    142  CA        30.5000   26.2980   42.5320 C.3   258  HIS258      0.1621
    143  C         31.8290   26.5640   43.2510 C.2   258  HIS258      0.2264
    144  O         31.8760   26.6740   44.4800 O.2   258  HIS258     -0.2867
    145  CB        29.7160   27.5900   42.3000 C.3   258  HIS258      0.0745
    146  CG        30.5770   28.7740   41.9910 C.ar  258  HIS258      0.0817
    147  ND1       31.2770   28.8980   40.8110 N.ar  258  HIS258     -0.2268
    148  CD2       30.8550   29.8860   42.7120 C.ar  258  HIS258      0.1154
    149  CE1       31.9560   30.0320   40.8210 C.ar  258  HIS258      0.1986
    150  NE2       31.7140   30.6520   41.9610 N.ar  258  HIS258     -0.2212
    151  N         38.7540   30.0410   40.6870 N.3   289  ASN289     -0.1240
    152  CA        37.3370   30.2880   40.4990 C.3   289  ASN289      0.1653
    153  C         37.0230   30.7510   39.0740 C.2   289  ASN289      0.2266
    154  O         37.4370   31.8280   38.6540 O.2   289  ASN289     -0.2867
    155  CB        36.8470   31.2980   41.5290 C.3   289  ASN289      0.1155
    156  CG        35.4270   31.7420   41.2910 C.2   289  ASN289      0.2627
    157  OD1       34.8360   31.4690   40.2470 O.2   289  ASN289     -0.2716
    158  ND2       34.8700   32.4480   42.2640 N.am  289  ASN289     -0.0877
    159  N         33.8350   30.9130   37.7570 N.3   291  SER291     -0.1217
    160  CA        32.4660   31.3820   37.6600 C.3   291  SER291      0.1889
    161  C         31.5130   30.3690   37.0110 C.2   291  SER291      0.2288
    162  O         31.5110   29.1990   37.3940 O.2   291  SER291     -0.2866
    163  CB        32.4400   32.7370   36.9600 C.3   291  SER291      0.2089
    164  OG        33.2920   33.6340   37.6540 O.3   291  SER291     -0.2183
    165  N         26.4270   33.0270   43.5460 N.3   320  GLY320     -0.1210
    166  CA        27.3140   34.1280   43.2170 C.3   320  GLY320      0.1956
    167  C         26.6310   35.4010   42.7890 C.2   320  GLY320      0.2611
    168  O         25.6920   35.8530   43.4370 O.2   320  GLY320     -0.2717
    169  N         27.1100   35.9690   41.6860 N.am  321  ALA321     -0.1979
    170  CA        26.7170   37.3110   41.2450 C.3   321  ALA321      0.1597
    171  C         25.2070   37.6030   41.2120 C.2   321  ALA321      0.2287
    172  O         24.3770   36.6990   41.0250 O.2   321  ALA321     -0.2864
    173  CB        27.3510   37.6300   39.9030 C.3   321  ALA321      0.0319
@<TRIPOS>BOND
     1    19    18    2
     2    18    17    1
     3    16    17    1
     4    17    20    1
     5    20    21    1
     6    22    21   ar
     7    22    24   ar
     8    21    23   ar
     9    12    11    2
    10    24    26   ar
    11    23    25   ar
    12    11    10    1
    13    94    93    2
    14    95    96    1
    15    95    92    1
    16    93    92    1
    17    96    98   ar
    18    96    97   ar
    19   101    98   ar
    20   101   103   ar
    21    26    25   ar
    22    98   100   ar
    23    97    99   ar
    24   103   104   ar
    25    92    91    1
    26   100    99   ar
    27   100   102   ar
    28    10    13    1
    29    10     9    1
    30   104   102   ar
    31    14    13    1
    32    13    15    1
    33     9     3   am
    34   114   113    1
    35     3     4    2
    36     3     2    1
    37     1     2    1
    38   113   115    1
    39   113   112    2
    40     2     5    1
    41   111   112    1
    42   111   110    1
    43    37    38    1
    44   109   110    1
    45   109   106    1
    46   122   121    1
    47   122   116    1
    48    90    88   am
    49    51    49    1
    50   121   120    1
    51    89    88    2
    52    45    46    1
    53   106   105    1
    54   106   107    1
    55    38    39    1
    56    38    41    1
    57    88    87    1
    58    39    40    2
    59     5     6    1
    60   116   107   am
    61   116   117    1
    62   120   117    1
    63    46    49    1
    64    46    47    1
    65    49    50    1
    66   119   118    2
    67   107   108    2
    68     6     7    2
    69     6     8   am
    70   117   118    1
    71    41    42    1
    72    87    86    1
    73    42    44    1
    74    42    43    1
    75   118   123   am
    76   131   133   ar
    77   131   129   ar
    78   133   132   ar
    79    47    48    2
    80    86    83    1
    81   129   128   ar
    82   123   124    1
    83   132   130   ar
    84    30    29    2
    85    27    28    1
    86   124   125    1
    87   124   127    1
    88   163   164    1
    89   163   160    1
    90   128   130   ar
    91   128   127    1
    92   161   162    2
    93   161   160    1
    94    83    84    1
    95    83    82    1
    96   125   126    2
    97   125   134   am
    98    28    29    1
    99    29    31   am
   100   160   159    1
   101   134   135    1
   102    85    84    2
   103    54    55    2
   104    54    53    1
   105    82    73   am
   106   138   139    1
   107   138   135    1
   108   138   140    1
   109    56    53    1
   110    56    57    1
   111   154   153    2
   112   135   136    1
   113    31    32    1
   114    32    33    1
   115    32    35    1
   116   153   152    1
   117    53    52    1
   118    33    34    2
   119    36    35    1
   120    73    74    2
   121    73    72    1
   122    57    59   ar
   123    57    58   ar
   124    59    61   ar
   125   173   170    1
   126   157   156    2
   127   136   137    2
   128    72    75    1
   129    72    71    1
   130    61    62   ar
   131    58    60   ar
   132   152   151    1
   133   152   155    1
   134   147   149   ar
   135   147   146   ar
   136   149   150   ar
   137    75    76    1
   138   172   171    2
   139   171   170    1
   140   170   169    1
   141    62    60   ar
   142   156   155    1
   143   156   158   am
   144    71    65   am
   145    66    65    2
   146    76    77    1
   147   169   167   am
   148    69    67    1
   149   150   148   ar
   150    65    64    1
   151   146   145    1
   152   146   148   ar
   153   145   142    1
   154   142   143    1
   155   142   141    1
   156    77    78    1
   157   167   166    1
   158   167   168    2
   159    78    79    2
   160    67    64    1
   161    67    68    1
   162    64    63    1
   163   166   165    1
   164   143   144    2
   165    79    81    1
   166    79    80    1
   167    70    68    1
