@<TRIPOS>MOLECULE
tmp/2qnxA00.pdb
 188 182 0 0 0
SMALL
GASTEIGER

@<TRIPOS>ATOM
      1  N         49.5830   32.4910   52.3260 N.3    42  TRP42      -0.1241
      2  CA        48.4360   33.3350   52.6280 C.3    42  TRP42       0.1605
      3  C         47.2720   33.1070   51.6650 C.2    42  TRP42       0.2264
      4  O         46.1640   32.8410   52.1140 O.2    42  TRP42      -0.2867
      5  CB        48.8380   34.8120   52.6620 C.3    42  TRP42       0.0550
      6  CG        47.8430   35.6770   53.3700 C.ar   42  TRP42       0.0003
      7  CD1       47.9090   36.1070   54.6630 C.ar   42  TRP42       0.0946
      8  CD2       46.6230   36.2090   52.8300 C.ar   42  TRP42       0.0152
      9  NE1       46.8090   36.8790   54.9630 N.ar   42  TRP42      -0.2442
     10  CE2       46.0040   36.9560   53.8570 C.ar   42  TRP42       0.0810
     11  CE3       45.9960   36.1310   51.5790 C.ar   42  TRP42       0.0012
     12  CZ2       44.7850   37.6220   53.6720 C.ar   42  TRP42       0.0191
     13  CZ3       44.7790   36.7910   51.3960 C.ar   42  TRP42       0.0001
     14  CH2       44.1880   37.5260   52.4380 C.ar   42  TRP42       0.0015
     15  N         43.1860   30.9440   52.6160 N.3    46  ARG46      -0.1231
     16  CA        41.8800   31.6100   52.6260 C.3    46  ARG46       0.1694
     17  C         41.0150   31.2390   51.4230 C.2    46  ARG46       0.2592
     18  O         39.7970   31.4180   51.4630 O.2    46  ARG46      -0.2718
     19  CB        42.0270   33.1400   52.6860 C.3    46  ARG46       0.0321
     20  CG        43.4510   33.6750   52.8800 C.3    46  ARG46       0.0489
     21  CD        43.9300   33.6870   54.3320 C.3    46  ARG46       0.2205
     22  NE        43.5550   34.9170   55.0310 N.pl3  46  ARG46      -0.0865
     23  CZ        44.1090   35.3520   56.1630 C.cat  46  ARG46       0.5346
     24  NH1       45.0920   34.6630   56.7440 N.pl3  46  ARG46       0.1354
     25  NH2       43.6770   36.4850   56.7110 N.pl3  46  ARG46       0.1354
     26  N         41.6360   30.7290   50.3590 N.am   47  THR47      -0.1953
     27  CA        40.9140   30.4500   49.1070 C.3    47  THR47       0.1897
     28  C         40.8630   28.9750   48.7330 C.2    47  THR47       0.2313
     29  O         39.8380   28.4970   48.2490 O.2    47  THR47      -0.2863
     30  CB        41.5020   31.2290   47.9080 C.3    47  THR47       0.1794
     31  OG1       42.8440   30.7920   47.6600 O.3    47  THR47      -0.2208
     32  CG2       41.4960   32.7270   48.1770 C.3    47  THR47       0.0378
     33  N         27.1760   33.0500   38.8360 N.3   122  CYS122     -0.1235
     34  CA        27.6510   31.6870   38.9530 C.3   122  CYS122      0.1677
     35  C         26.5210   30.7310   39.2830 C.2   122  CYS122      0.2270
     36  O         26.7480   29.6400   39.8000 O.2   122  CYS122     -0.2867
     37  CB        28.7900   31.6020   39.9580 C.3   122  CYS122      0.0956
     38  SG        30.1810   32.6130   39.4410 S.3   122  CYS122     -0.0801
     39  N         43.6340   43.8270   46.2500 N.3   161  ARG161     -0.1231
     40  CA        44.1300   42.8380   47.2100 C.3   161  ARG161      0.1694
     41  C         43.0500   41.8940   47.7430 C.2   161  ARG161      0.2592
     42  O         43.3530   40.9470   48.4640 O.2   161  ARG161     -0.2718
     43  CB        44.8550   43.5290   48.3760 C.3   161  ARG161      0.0321
     44  CG        43.9650   44.4160   49.2370 C.3   161  ARG161      0.0489
     45  CD        44.2150   44.1650   50.7190 C.3   161  ARG161      0.2205
     46  NE        45.1140   45.1500   51.3200 N.pl3 161  ARG161     -0.0865
     47  CZ        45.4630   45.1610   52.6060 C.cat 161  ARG161      0.5346
     48  NH1       44.9990   44.2280   53.4320 N.pl3 161  ARG161      0.1354
     49  NH2       46.2800   46.1000   53.0710 N.pl3 161  ARG161      0.1354
     50  N         41.7970   42.1520   47.3780 N.am  162  GLY162     -0.1957
     51  CA        40.6720   41.3440   47.8400 C.3   162  GLY162      0.1869
     52  C         40.2740   40.1860   46.9410 C.2   162  GLY162      0.2309
     53  O         39.8290   39.1460   47.4310 O.2   162  GLY162     -0.2863
     54  N         43.4810   37.2910   42.9800 N.3   165  PHE165     -0.1227
     55  CA        43.9780   35.9090   42.9480 C.3   165  PHE165      0.1736
     56  C         42.8730   34.8380   42.9130 C.2   165  PHE165      0.2595
     57  O         43.1470   33.6590   43.1590 O.2   165  PHE165     -0.2718
     58  CB        44.8210   35.6840   44.2070 C.3   165  PHE165      0.0547
     59  CG        44.1580   36.1950   45.4520 C.ar  165  PHE165     -0.0202
     60  CD1       43.1150   35.4840   46.0440 C.ar  165  PHE165     -0.0042
     61  CD2       44.5370   37.4100   46.0010 C.ar  165  PHE165     -0.0042
     62  CE1       42.4760   35.9670   47.1790 C.ar  165  PHE165     -0.0003
     63  CE2       43.9100   37.8990   47.1390 C.ar  165  PHE165     -0.0003
     64  CZ        42.8780   37.1730   47.7310 C.ar  165  PHE165     -0.0000
     65  N         41.6360   35.2410   42.6310 N.am  166  ILE166     -0.1966
     66  CA        40.4940   34.3310   42.7300 C.3   166  ILE166      0.1727
     67  C         40.0370   33.8280   41.3630 C.2   166  ILE166      0.2616
     68  O         39.8130   32.6310   41.1670 O.2   166  ILE166     -0.2715
     69  CB        39.3180   34.9900   43.4960 C.3   166  ILE166      0.0290
     70  CG1       39.6210   35.0060   45.0010 C.3   166  ILE166      0.0022
     71  CG2       38.0030   34.2580   43.2380 C.3   166  ILE166      0.0023
     72  CD1       38.7780   35.9850   45.8180 C.3   166  ILE166      0.0001
     73  N         39.9130   34.7440   40.4150 N.am  167  PHE167     -0.1974
     74  CA        39.3370   34.4140   39.1260 C.3   167  PHE167      0.1639
     75  C         40.3620   33.8360   38.1340 C.2   167  PHE167      0.2290
     76  O         41.5630   34.0930   38.2330 O.2   167  PHE167     -0.2864
     77  CB        38.5580   35.6180   38.5830 C.3   167  PHE167      0.0560
     78  CG        37.4520   36.0810   39.5110 C.ar  167  PHE167     -0.0200
     79  CD1       37.6590   37.1340   40.3990 C.ar  167  PHE167     -0.0042
     80  CD2       36.2150   35.4390   39.5220 C.ar  167  PHE167     -0.0042
     81  CE1       36.6430   37.5520   41.2680 C.ar  167  PHE167     -0.0003
     82  CE2       35.1910   35.8540   40.3830 C.ar  167  PHE167     -0.0003
     83  CZ        35.4070   36.9070   41.2560 C.ar  167  PHE167     -0.0000
     84  N         28.9020   41.3200   44.3140 N.3   199  ILE199     -0.1245
     85  CA        29.7480   40.9220   43.1900 C.3   199  ILE199      0.1561
     86  C         29.2700   41.6770   41.9660 C.2   199  ILE199      0.2260
     87  O         28.1080   41.5450   41.5600 O.2   199  ILE199     -0.2867
     88  CB        29.6610   39.4150   42.9010 C.3   199  ILE199      0.0252
     89  CG1       29.8630   38.6130   44.1870 C.3   199  ILE199      0.0019
     90  CG2       30.6800   39.0230   41.8190 C.3   199  ILE199      0.0019
     91  CD1       29.2470   37.2330   44.1750 C.3   199  ILE199      0.0001
     92  N         34.5810   42.7330   44.4530 N.3   221  LEU221     -0.1245
     93  CA        34.0320   41.7030   45.3100 C.3   221  LEU221      0.1561
     94  C         34.0770   42.1260   46.7650 C.2   221  LEU221      0.2260
     95  O         35.1410   42.4770   47.2860 O.2   221  LEU221     -0.2867
     96  CB        34.8270   40.4110   45.1190 C.3   221  LEU221      0.0270
     97  CG        34.3150   39.1330   45.7740 C.3   221  LEU221      0.0019
     98  CD1       33.2430   38.4840   44.9110 C.3   221  LEU221      0.0001
     99  CD2       35.4730   38.1750   45.9990 C.3   221  LEU221      0.0001
    100  N         34.1380   40.4490   49.6450 N.3   223  GLY223     -0.1210
    101  CA        34.4350   39.1350   50.2440 C.3   223  GLY223      0.1940
    102  C         33.5680   38.6910   51.4170 C.2   223  GLY223      0.2453
    103  O         32.6790   37.8430   51.2460 O.2   223  GLY223     -0.2732
    104  N         33.8320   39.2430   52.6170 N.am  224  PRO224     -0.2728
    105  CA        33.0320   38.9990   53.8160 C.3   224  PRO224      0.1401
    106  C         31.5370   38.7740   53.5510 C.2   224  PRO224      0.2269
    107  O         30.9940   37.7600   53.9820 O.2   224  PRO224     -0.2865
    108  CB        33.2560   40.2740   54.6280 C.3   224  PRO224      0.0296
    109  CG        34.6770   40.6490   54.3100 C.3   224  PRO224      0.0237
    110  CD        34.9700   40.1380   52.9100 C.3   224  PRO224      0.0939
    111  N         29.8260   38.0600   50.7340 N.3   226  VAL226     -0.1231
    112  CA        29.5770   36.8980   49.8700 C.3   226  VAL226      0.1692
    113  C         29.8970   35.5860   50.5990 C.2   226  VAL226      0.2592
    114  O         29.2750   34.5480   50.3550 O.2   226  VAL226     -0.2718
    115  CB        30.3960   36.9760   48.5570 C.3   226  VAL226      0.0266
    116  CG1       30.1060   35.7770   47.6530 C.3   226  VAL226      0.0020
    117  CG2       30.1100   38.2820   47.8230 C.3   226  VAL226      0.0020
    118  N         30.8740   35.6390   51.4940 N.am  227  PHE227     -0.1976
    119  CA        31.1820   34.4990   52.3290 C.3   227  PHE227      0.1639
    120  C         29.9610   34.1660   53.1850 C.2   227  PHE227      0.2290
    121  O         29.3770   33.0960   53.0410 O.2   227  PHE227     -0.2864
    122  CB        32.4010   34.8010   53.2020 C.3   227  PHE227      0.0560
    123  CG        32.9660   33.5970   53.9020 C.ar  227  PHE227     -0.0200
    124  CD1       34.1520   33.0140   53.4530 C.ar  227  PHE227     -0.0042
    125  CD2       32.3240   33.0520   55.0180 C.ar  227  PHE227     -0.0042
    126  CE1       34.6900   31.8990   54.1010 C.ar  227  PHE227     -0.0003
    127  CE2       32.8460   31.9410   55.6680 C.ar  227  PHE227     -0.0003
    128  CZ        34.0320   31.3610   55.2110 C.ar  227  PHE227     -0.0000
    129  N         29.7060   25.3510   43.3060 N.3   258  HIS258     -0.1241
    130  CA        30.5000   26.2980   42.5320 C.3   258  HIS258      0.1621
    131  C         31.8290   26.5640   43.2510 C.2   258  HIS258      0.2264
    132  O         31.8760   26.6740   44.4800 O.2   258  HIS258     -0.2867
    133  CB        29.7160   27.5900   42.3000 C.3   258  HIS258      0.0745
    134  CG        30.5770   28.7740   41.9910 C.ar  258  HIS258      0.0817
    135  ND1       31.2770   28.8980   40.8110 N.ar  258  HIS258     -0.2268
    136  CD2       30.8550   29.8860   42.7120 C.ar  258  HIS258      0.1154
    137  CE1       31.9560   30.0320   40.8210 C.ar  258  HIS258      0.1986
    138  NE2       31.7140   30.6520   41.9610 N.ar  258  HIS258     -0.2212
    139  N         33.7890   28.8110   44.2460 N.3   260  ALA260     -0.1231
    140  CA        34.0560   30.1780   44.6910 C.3   260  ALA260      0.1694
    141  C         35.2290   30.2590   45.6670 C.2   260  ALA260      0.2592
    142  O         36.1290   31.0740   45.5000 O.2   260  ALA260     -0.2718
    143  CB        32.8040   30.7860   45.3070 C.3   260  ALA260      0.0304
    144  N         35.2110   29.3930   46.6740 N.am  261  ASN261     -0.1974
    145  CA        36.1740   29.4280   47.7700 C.3   261  ASN261      0.1688
    146  C         36.1240   28.1310   48.5920 C.2   261  ASN261      0.2292
    147  O         35.0420   27.6280   48.9120 O.2   261  ASN261     -0.2864
    148  CB        35.9010   30.6520   48.6510 C.3   261  ASN261      0.1181
    149  CG        36.8110   30.7260   49.8480 C.2   261  ASN261      0.2629
    150  OD1       36.5690   30.0730   50.8610 O.2   261  ASN261     -0.2716
    151  ND2       37.8590   31.5360   49.7480 N.am  261  ASN261     -0.0877
    152  N         34.3810   28.2750   52.1960 N.3   264  ILE264     -0.1245
    153  CA        32.9340   28.3160   52.0270 C.3   264  ILE264      0.1561
    154  C         32.3940   26.9070   51.8110 C.2   264  ILE264      0.2260
    155  O         31.4870   26.4640   52.5250 O.2   264  ILE264     -0.2867
    156  CB        32.5150   29.2150   50.8330 C.3   264  ILE264      0.0252
    157  CG1       32.9850   30.6600   51.0330 C.3   264  ILE264      0.0019
    158  CG2       30.9930   29.1580   50.6270 C.3   264  ILE264      0.0019
    159  CD1       32.5810   31.6200   49.9100 C.3   264  ILE264      0.0001
    160  N         38.7540   30.0410   40.6870 N.3   289  ASN289     -0.1240
    161  CA        37.3370   30.2880   40.4990 C.3   289  ASN289      0.1653
    162  C         37.0230   30.7510   39.0740 C.2   289  ASN289      0.2266
    163  O         37.4370   31.8280   38.6540 O.2   289  ASN289     -0.2867
    164  CB        36.8470   31.2980   41.5290 C.3   289  ASN289      0.1155
    165  CG        35.4270   31.7420   41.2910 C.2   289  ASN289      0.2627
    166  OD1       34.8360   31.4690   40.2470 O.2   289  ASN289     -0.2716
    167  ND2       34.8700   32.4480   42.2640 N.am  289  ASN289     -0.0877
    168  N         26.1240   29.4600   43.0400 N.3   319  TYR319     -0.1227
    169  CA        25.8520   30.6810   43.8100 C.3   319  TYR319      0.1736
    170  C         26.8450   31.7720   43.4340 C.2   319  TYR319      0.2596
    171  O         27.9850   31.4800   43.0570 O.2   319  TYR319     -0.2718
    172  CB        25.9460   30.4100   45.3170 C.3   319  TYR319      0.0548
    173  CG        27.2760   29.8430   45.7710 C.ar  319  TYR319     -0.0200
    174  CD1       28.3290   30.6810   46.1460 C.ar  319  TYR319     -0.0009
    175  CD2       27.4800   28.4660   45.8290 C.ar  319  TYR319     -0.0009
    176  CE1       29.5540   30.1550   46.5600 C.ar  319  TYR319      0.0417
    177  CE2       28.6970   27.9330   46.2410 C.ar  319  TYR319      0.0417
    178  CZ        29.7280   28.7780   46.6040 C.ar  319  TYR319      0.1957
    179  OH        30.9240   28.2350   47.0090 O.3   319  TYR319     -0.2866
    180  N         26.4270   33.0270   43.5460 N.am  320  GLY320     -0.1942
    181  CA        27.3140   34.1280   43.2170 C.3   320  GLY320      0.2014
    182  C         26.6310   35.4010   42.7890 C.2   320  GLY320      0.2638
    183  O         25.6920   35.8530   43.4370 O.2   320  GLY320     -0.2714
    184  N         27.1100   35.9690   41.6860 N.am  321  ALA321     -0.1977
    185  CA        26.7170   37.3110   41.2450 C.3   321  ALA321      0.1597
    186  C         25.2070   37.6030   41.2120 C.2   321  ALA321      0.2287
    187  O         24.3770   36.6990   41.0250 O.2   321  ALA321     -0.2864
    188  CB        27.3510   37.6300   39.9030 C.3   321  ALA321      0.0319
@<TRIPOS>BOND
     1    75    76    2
     2    75    74    1
     3    77    74    1
     4    77    78    1
     5   163   162    2
     6    33    34    1
     7    34    35    1
     8    34    37    1
     9   162   161    1
    10    74    73    1
    11    35    36    2
    12    38    37    1
    13    78    80   ar
    14    78    79   ar
    15    80    82   ar
    16   188   185    1
    17   166   165    2
    18    82    83   ar
    19    79    81   ar
    20    73    67   am
    21   161   160    1
    22   161   164    1
    23   135   137   ar
    24   135   134   ar
    25   137   138   ar
    26   187   186    2
    27    68    67    2
    28   186   185    1
    29   185   184    1
    30    83    81   ar
    31   165   164    1
    32   165   167   am
    33    67    66    1
    34    87    86    2
    35   184   182   am
    36    90    88    1
    37   138   136   ar
    38    86    85    1
    39   134   133    1
    40   134   136   ar
    41   133   130    1
    42   130   131    1
    43   130   129    1
    44    65    66    1
    45    65    56   am
    46    66    69    1
    47   182   181    1
    48   182   183    2
    49    88    85    1
    50    88    89    1
    51    56    55    1
    52    56    57    2
    53    55    54    1
    54    55    58    1
    55   168   169    1
    56   171   170    2
    57    85    84    1
    58   181   180    1
    59    71    69    1
    60   131   132    2
    61   170   180   am
    62   170   169    1
    63    69    70    1
    64   169   172    1
    65    91    89    1
    66    58    59    1
    67   139   140    1
    68    92    93    1
    69   140   143    1
    70   140   141    1
    71    98    97    1
    72    70    72    1
    73    96    93    1
    74    96    97    1
    75    93    94    1
    76   172   173    1
    77    59    61   ar
    78    59    60   ar
    79   142   141    2
    80   141   144   am
    81   173   175   ar
    82   173   174   ar
    83    97    99    1
    84   175   177   ar
    85    61    63   ar
    86    60    62   ar
    87   174   176   ar
    88   177   178   ar
    89    39    40    1
    90   176   178   ar
    91   178   179    1
    92   144   145    1
    93    94    95    2
    94    52    53    2
    95    52    51    1
    96    63    64   ar
    97    62    64   ar
    98    40    41    1
    99    40    43    1
   100    50    41   am
   101    50    51    1
   102   116   115    1
   103    31    30    1
   104    41    42    2
   105   145   146    1
   106   145   148    1
   107   117   115    1
   108    30    32    1
   109    30    27    1
   110    29    28    2
   111    43    44    1
   112   115   112    1
   113   146   147    2
   114   148   149    1
   115    28    27    1
   116    27    26    1
   117    44    45    1
   118   100   101    1
   119   151   149   am
   120   149   150    2
   121   112   113    1
   122   112   111    1
   123   159   157    1
   124   101   102    1
   125   114   113    2
   126    26    17   am
   127   113   118   am
   128   158   156    1
   129    45    46    1
   130   156   157    1
   131   156   153    1
   132   103   102    2
   133    46    47    2
   134    13    11   ar
   135    13    14   ar
   136   102   104   am
   137    17    18    2
   138    17    16    1
   139   118   119    1
   140    11     8   ar
   141     3     4    2
   142     3     2    1
   143   154   153    1
   144   154   155    2
   145   153   152    1
   146     1     2    1
   147   119   120    1
   148   119   122    1
   149    14    12   ar
   150    47    49    1
   151    47    48    1
   152    15    16    1
   153   104   110    1
   154   104   105    1
   155    16    19    1
   156     2     5    1
   157     5     6    1
   158    19    20    1
   159     8     6   ar
   160     8    10   ar
   161    20    21    1
   162   110   109    1
   163   121   120    2
   164   122   123    1
   165     6     7   ar
   166   124   123   ar
   167   124   126   ar
   168   106   105    1
   169   106   107    2
   170    12    10   ar
   171   105   108    1
   172    10     9   ar
   173   123   125   ar
   174   126   128   ar
   175   109   108    1
   176    21    22    1
   177     7     9   ar
   178   125   127   ar
   179    22    23    2
   180   128   127   ar
   181    23    25    1
   182    23    24    1
