@<TRIPOS>MOLECULE
tmp/2qnyA00.pdb
 184 178 0 0 0
SMALL
GASTEIGER

@<TRIPOS>ATOM
      1  N         29.1510   35.1420   31.6790 N.3    87  ASN87      -0.1225
      2  CA        29.1060   36.5110   32.1840 C.3    87  ASN87       0.1785
      3  C         30.2110   37.3300   31.5330 C.2    87  ASN87       0.2597
      4  O         30.3620   38.5170   31.8140 O.2    87  ASN87      -0.2718
      5  CB        29.2890   36.5200   33.7030 C.3    87  ASN87       0.1169
      6  CG        28.1550   35.8280   34.4250 C.2    87  ASN87       0.2627
      7  OD1       27.0510   36.3770   34.5560 O.2    87  ASN87      -0.2716
      8  ND2       28.4130   34.6040   34.8890 N.am   87  ASN87      -0.0877
      9  N         30.9800   36.6810   30.6620 N.am   88  THR88      -0.1953
     10  CA        32.1620   37.2980   30.0660 C.3    88  THR88       0.1897
     11  C         32.1890   37.2010   28.5390 C.2    88  THR88       0.2313
     12  O         33.2590   37.1090   27.9190 O.2    88  THR88      -0.2863
     13  CB        33.4490   36.7110   30.6610 C.3    88  THR88       0.1794
     14  OG1       33.3740   35.2800   30.6200 O.3    88  THR88      -0.2208
     15  CG2       33.6310   37.1840   32.1170 C.3    88  THR88       0.0378
     16  N         31.7980   39.5970   25.8120 N.3    90  PHE90      -0.1241
     17  CA        31.9430   41.0580   25.8660 C.3    90  PHE90       0.1605
     18  C         31.3060   41.8410   24.7070 C.2    90  PHE90       0.2264
     19  O         31.7700   42.9280   24.3480 O.2    90  PHE90      -0.2867
     20  CB        33.4220   41.4430   26.0580 C.3    90  PHE90       0.0534
     21  CG        34.0560   40.8240   27.2790 C.ar   90  PHE90      -0.0203
     22  CD1       35.1520   39.9770   27.1550 C.ar   90  PHE90      -0.0042
     23  CD2       33.5430   41.0730   28.5540 C.ar   90  PHE90      -0.0042
     24  CE1       35.7400   39.3960   28.2860 C.ar   90  PHE90      -0.0003
     25  CE2       34.1210   40.4920   29.6920 C.ar   90  PHE90      -0.0003
     26  CZ        35.2220   39.6570   29.5550 C.ar   90  PHE90      -0.0000
     27  N         24.8720   35.1040   36.7530 N.3   117  GLY117     -0.1210
     28  CA        26.1110   34.9150   37.4960 C.3   117  GLY117      0.1956
     29  C         26.5610   33.4720   37.4320 C.2   117  GLY117      0.2612
     30  O         26.4900   32.8310   36.3740 O.2   117  GLY117     -0.2717
     31  N         27.0230   32.9390   38.5610 N.am  118  CYS118     -0.1970
     32  CA        27.4730   31.5290   38.6250 C.3   118  CYS118      0.1712
     33  C         26.3520   30.6320   39.1750 C.2   118  CYS118      0.2296
     34  O         26.6060   29.6110   39.8210 O.2   118  CYS118     -0.2864
     35  CB        28.7150   31.4360   39.5050 C.3   118  CYS118      0.0983
     36  SG        30.0390   32.5790   38.9680 S.3   118  CYS118     -0.0798
     37  N         37.3370   35.4210   32.6380 N.3   148  LEU148     -0.1245
     38  CA        37.3280   36.4200   33.7070 C.3   148  LEU148      0.1561
     39  C         38.6140   37.2290   33.8270 C.2   148  LEU148      0.2260
     40  O         38.5860   38.3640   34.3150 O.2   148  LEU148     -0.2867
     41  CB        37.0120   35.7560   35.0490 C.3   148  LEU148      0.0270
     42  CG        35.5500   35.3520   35.2430 C.3   148  LEU148      0.0019
     43  CD1       35.4170   34.1810   36.2020 C.3   148  LEU148      0.0001
     44  CD2       34.7390   36.5530   35.7150 C.3   148  LEU148      0.0001
     45  N         38.8200   40.9740   33.2500 N.3   151  THR151     -0.1218
     46  CA        37.9610   41.7690   34.1300 C.3   151  THR151      0.1862
     47  C         38.5850   41.9990   35.5120 C.2   151  THR151      0.2287
     48  O         38.0010   42.6800   36.3620 O.2   151  THR151     -0.2866
     49  CB        36.5780   41.0940   34.3360 C.3   151  THR151      0.1770
     50  OG1       36.6950   40.0260   35.2850 O.3   151  THR151     -0.2211
     51  CG2       36.0140   40.5610   33.0220 C.3   151  THR151      0.0375
     52  N         39.4420   34.8090   40.5310 N.3   163  PHE163     -0.1241
     53  CA        38.8010   34.4980   39.2530 C.3   163  PHE163      0.1605
     54  C         39.7580   33.9110   38.2020 C.2   163  PHE163      0.2264
     55  O         40.9710   34.1420   38.2450 O.2   163  PHE163     -0.2867
     56  CB        38.0270   35.7120   38.7170 C.3   163  PHE163      0.0534
     57  CG        36.9570   36.2200   39.6620 C.ar  163  PHE163     -0.0203
     58  CD1       37.1220   37.4250   40.3380 C.ar  163  PHE163     -0.0042
     59  CD2       35.7860   35.4880   39.8770 C.ar  163  PHE163     -0.0042
     60  CE1       36.1400   37.9000   41.2170 C.ar  163  PHE163     -0.0003
     61  CE2       34.7980   35.9500   40.7500 C.ar  163  PHE163     -0.0003
     62  CZ        34.9730   37.1590   41.4230 C.ar  163  PHE163     -0.0000
     63  N         28.3920   41.2750   44.1920 N.3   195  ILE195     -0.1231
     64  CA        29.2850   40.8730   43.1100 C.3   195  ILE195      0.1692
     65  C         28.8420   41.6180   41.8530 C.2   195  ILE195      0.2592
     66  O         27.7080   41.4600   41.4090 O.2   195  ILE195     -0.2718
     67  CB        29.2580   39.3440   42.8550 C.3   195  ILE195      0.0266
     68  CG1       29.4720   38.5630   44.1580 C.3   195  ILE195      0.0019
     69  CG2       30.3080   38.9630   41.8080 C.3   195  ILE195      0.0020
     70  CD1       29.1170   37.0790   44.0680 C.3   195  ILE195      0.0001
     71  N         29.7380   42.4230   41.2850 N.am  196  ARG196     -0.1966
     72  CA        29.3500   43.3910   40.2530 C.3   196  ARG196      0.1729
     73  C         30.4800   43.8600   39.3290 C.2   196  ARG196      0.2616
     74  O         31.6630   43.8440   39.6940 O.2   196  ARG196     -0.2715
     75  CB        28.7130   44.6250   40.9140 C.3   196  ARG196      0.0348
     76  CG        29.7240   45.6000   41.5290 C.3   196  ARG196      0.0492
     77  CD        29.0720   46.6390   42.4310 C.3   196  ARG196      0.2205
     78  NE        30.0660   47.5250   43.0380 N.pl3 196  ARG196     -0.0865
     79  CZ        30.8100   47.2270   44.1040 C.cat 196  ARG196      0.5346
     80  NH1       30.6910   46.0550   44.7180 N.pl3 196  ARG196      0.1354
     81  NH2       31.6870   48.1090   44.5620 N.pl3 196  ARG196      0.1354
     82  N         30.0880   44.2820   38.1300 N.am  197  GLN197     -0.1977
     83  CA        30.8740   45.2240   37.3410 C.3   197  GLN197      0.1601
     84  C         30.5720   46.5920   37.9530 C.2   197  GLN197      0.2287
     85  O         29.3990   46.9660   38.0950 O.2   197  GLN197     -0.2864
     86  CB        30.4430   45.1680   35.8740 C.3   197  GLN197      0.0394
     87  CG        31.1060   46.1960   34.9620 C.3   197  GLN197      0.0908
     88  CD        30.6980   46.0310   33.5060 C.2   197  GLN197      0.2608
     89  OE1       30.4860   44.9130   33.0310 O.2   197  GLN197     -0.2717
     90  NE2       30.5870   47.1430   32.7940 N.am  197  GLN197     -0.0878
     91  N         29.0380   49.7840   31.0740 N.3   201  TRP201     -0.1241
     92  CA        29.7630   50.0210   29.8250 C.3   201  TRP201      0.1605
     93  C         29.4530   51.3600   29.1400 C.2   201  TRP201      0.2264
     94  O         30.3320   51.9550   28.5070 O.2   201  TRP201     -0.2867
     95  CB        29.5330   48.8640   28.8490 C.3   201  TRP201      0.0550
     96  CG        30.1720   47.5590   29.2590 C.ar  201  TRP201      0.0003
     97  CD1       29.5330   46.3740   29.4930 C.ar  201  TRP201      0.0946
     98  CD2       31.5700   47.3080   29.4750 C.ar  201  TRP201      0.0152
     99  NE1       30.4410   45.4030   29.8400 N.ar  201  TRP201     -0.2442
    100  CE2       31.6990   45.9480   29.8390 C.ar  201  TRP201      0.0810
    101  CE3       32.7270   48.1000   29.3960 C.ar  201  TRP201      0.0012
    102  CZ2       32.9380   45.3590   30.1260 C.ar  201  TRP201      0.0191
    103  CZ3       33.9620   47.5130   29.6820 C.ar  201  TRP201      0.0001
    104  CH2       34.0550   46.1560   30.0410 C.ar  201  TRP201      0.0015
    105  N         38.3210   52.5620   34.2980 N.3   212  ARG212     -0.1231
    106  CA        37.6010   51.5230   33.5550 C.3   212  ARG212      0.1679
    107  C         36.9040   50.5390   34.5030 C.2   212  ARG212      0.2434
    108  O         37.2140   50.5070   35.6990 O.2   212  ARG212     -0.2733
    109  CB        38.5260   50.7960   32.5620 C.3   212  ARG212      0.0321
    110  CG        39.7590   50.1280   33.1560 C.3   212  ARG212      0.0489
    111  CD        40.1920   48.9400   32.3110 C.3   212  ARG212      0.2205
    112  NE        39.3680   47.7600   32.5790 N.pl3 212  ARG212     -0.0865
    113  CZ        39.6050   46.5360   32.1060 C.cat 212  ARG212      0.5346
    114  NH1       40.6490   46.3000   31.3180 N.pl3 212  ARG212      0.1354
    115  NH2       38.7930   45.5390   32.4300 N.pl3 212  ARG212      0.1354
    116  N         35.9370   49.7550   33.9850 N.am  213  PRO213     -0.2718
    117  CA        35.2440   48.7800   34.8300 C.3   213  PRO213      0.1535
    118  C         36.0960   47.5590   35.1490 C.2   213  PRO213      0.2599
    119  O         36.8950   47.1070   34.3150 O.2   213  PRO213     -0.2715
    120  CB        34.0340   48.3650   33.9770 C.3   213  PRO213      0.0310
    121  CG        33.9720   49.3860   32.8540 C.3   213  PRO213      0.0237
    122  CD        35.3930   49.7480   32.6170 C.3   213  PRO213      0.0939
    123  N         35.9200   47.0530   36.3640 N.am  214  PHE214     -0.1960
    124  CA        36.5310   45.8080   36.8100 C.3   214  PHE214      0.1771
    125  C         35.5010   45.0670   37.6470 C.2   214  PHE214      0.2619
    126  O         34.5080   45.6620   38.0860 O.2   214  PHE214     -0.2715
    127  CB        37.7720   46.0840   37.6670 C.3   214  PHE214      0.0574
    128  CG        38.9510   46.6220   36.8980 C.ar  214  PHE214     -0.0200
    129  CD1       39.6470   45.8150   36.0020 C.ar  214  PHE214     -0.0042
    130  CD2       39.3890   47.9280   37.1000 C.ar  214  PHE214     -0.0042
    131  CE1       40.7460   46.3080   35.3040 C.ar  214  PHE214     -0.0003
    132  CE2       40.4880   48.4310   36.4080 C.ar  214  PHE214     -0.0003
    133  CZ        41.1680   47.6190   35.5100 C.ar  214  PHE214     -0.0000
    134  N         35.7270   43.7720   37.8620 N.am  215  VAL215     -0.1977
    135  CA        34.8840   42.9980   38.7750 C.3   215  VAL215      0.1596
    136  C         35.1950   43.4050   40.2160 C.2   215  VAL215      0.2287
    137  O         36.3630   43.5040   40.6160 O.2   215  VAL215     -0.2864
    138  CB        35.0170   41.4510   38.5770 C.3   215  VAL215      0.0276
    139  CG1       36.4270   40.9450   38.9020 C.3   215  VAL215      0.0022
    140  CG2       33.9710   40.7050   39.4090 C.3   215  VAL215      0.0022
    141  N         29.2710   25.2390   43.5130 N.3   254  HIS254     -0.1241
    142  CA        30.0460   26.1900   42.7310 C.3   254  HIS254      0.1621
    143  C         31.4010   26.4100   43.4080 C.2   254  HIS254      0.2264
    144  O         31.4720   26.5190   44.6300 O.2   254  HIS254     -0.2867
    145  CB        29.2880   27.5110   42.5640 C.3   254  HIS254      0.0745
    146  CG        30.1370   28.6230   42.0420 C.ar  254  HIS254      0.0817
    147  ND1       30.8050   28.5430   40.8420 N.ar  254  HIS254     -0.2268
    148  CD2       30.4400   29.8330   42.5630 C.ar  254  HIS254      0.1154
    149  CE1       31.4850   29.6570   40.6440 C.ar  254  HIS254      0.1986
    150  NE2       31.2750   30.4600   41.6710 N.ar  254  HIS254     -0.2212
    151  N         33.4740   28.6270   44.3940 N.3   256  PHE256     -0.1241
    152  CA        33.6780   30.0230   44.7610 C.3   256  PHE256      0.1605
    153  C         34.8400   30.1450   45.7380 C.2   256  PHE256      0.2264
    154  O         35.7490   30.9520   45.5400 O.2   256  PHE256     -0.2867
    155  CB        32.4040   30.5980   45.3980 C.3   256  PHE256      0.0534
    156  CG        32.2320   32.0820   45.1950 C.ar  256  PHE256     -0.0203
    157  CD1       31.1650   32.5710   44.4530 C.ar  256  PHE256     -0.0042
    158  CD2       33.1360   32.9890   45.7360 C.ar  256  PHE256     -0.0042
    159  CE1       30.9980   33.9460   44.2560 C.ar  256  PHE256     -0.0003
    160  CE2       32.9830   34.3650   45.5430 C.ar  256  PHE256     -0.0003
    161  CZ        31.9140   34.8420   44.8040 C.ar  256  PHE256     -0.0000
    162  N         38.0920   30.1730   40.6530 N.3   285  ASN285     -0.1240
    163  CA        36.6720   30.4360   40.4480 C.3   285  ASN285      0.1653
    164  C         36.4300   30.8490   38.9980 C.2   285  ASN285      0.2266
    165  O         36.8800   31.9140   38.5630 O.2   285  ASN285     -0.2867
    166  CB        36.1970   31.5190   41.4280 C.3   285  ASN285      0.1155
    167  CG        34.7180   31.8710   41.2800 C.2   285  ASN285      0.2627
    168  OD1       34.0700   31.5410   40.2920 O.2   285  ASN285     -0.2716
    169  ND2       34.1870   32.5670   42.2760 N.am  285  ASN285     -0.0877
    170  N         33.2310   31.0050   37.6550 N.3   287  SER287     -0.1217
    171  CA        31.8160   31.3910   37.5880 C.3   287  SER287      0.1889
    172  C         30.9130   30.3680   36.8740 C.2   287  SER287      0.2288
    173  O         30.7850   29.2360   37.3400 O.2   287  SER287     -0.2866
    174  CB        31.6750   32.8020   37.0040 C.3   287  SER287      0.2089
    175  OG        32.4140   33.7300   37.7820 O.3   287  SER287     -0.2183
    176  N         26.0760   32.7200   43.4790 N.3   316  GLY316     -0.1210
    177  CA        26.9200   33.8430   43.0650 C.3   316  GLY316      0.1956
    178  C         26.1490   35.0890   42.6510 C.2   316  GLY316      0.2611
    179  O         25.1120   35.4040   43.2360 O.2   316  GLY316     -0.2717
    180  N         26.6470   35.7600   41.6110 N.am  317  ALA317     -0.1979
    181  CA        26.2320   37.1200   41.2380 C.3   317  ALA317      0.1597
    182  C         24.7330   37.3340   40.9920 C.2   317  ALA317      0.2287
    183  O         24.0120   36.4100   40.6020 O.2   317  ALA317     -0.2864
    184  CB        27.0420   37.6140   40.0400 C.3   317  ALA317      0.0319
@<TRIPOS>BOND
     1    19    18    2
     2    18    17    1
     3    16    17    1
     4    17    20    1
     5    20    21    1
     6    22    21   ar
     7    22    24   ar
     8    21    23   ar
     9    12    11    2
    10    24    26   ar
    11    94    93    2
    12    11    10    1
    13    23    25   ar
    14    95    96    1
    15    95    92    1
    16    93    92    1
    17    96    98   ar
    18    96    97   ar
    19   101    98   ar
    20   101   103   ar
    21    98   100   ar
    22    97    99   ar
    23    26    25   ar
    24   103   104   ar
    25    92    91    1
    26   100    99   ar
    27   100   102   ar
    28   104   102   ar
    29    10    13    1
    30    10     9    1
    31    14    13    1
    32    13    15    1
    33     9     3   am
    34   114   113    1
    35     3     4    2
    36     3     2    1
    37     1     2    1
    38   113   115    1
    39   113   112    2
    40     2     5    1
    41   111   112    1
    42   111   110    1
    43   109   110    1
    44   109   106    1
    45   122   121    1
    46   122   116    1
    47    37    38    1
    48    90    88   am
    49   121   120    1
    50    51    49    1
    51    89    88    2
    52    45    46    1
    53    88    87    1
    54   106   105    1
    55   106   107    1
    56     5     6    1
    57    38    39    1
    58    38    41    1
    59    39    40    2
    60   120   117    1
    61   116   107   am
    62   116   117    1
    63    46    49    1
    64    46    47    1
    65   119   118    2
    66    49    50    1
    67     6     7    2
    68     6     8   am
    69   107   108    2
    70   117   118    1
    71    87    86    1
    72    41    42    1
    73   118   123   am
    74    42    44    1
    75    42    43    1
    76   131   133   ar
    77   131   129   ar
    78   133   132   ar
    79    47    48    2
    80    86    83    1
    81   129   128   ar
    82   123   124    1
    83    30    29    2
    84   132   130   ar
    85    27    28    1
    86   124   125    1
    87   124   127    1
    88   172   173    2
    89   172   171    1
    90   128   130   ar
    91   128   127    1
    92   174   171    1
    93   174   175    1
    94    83    84    1
    95    83    82    1
    96    29    28    1
    97    29    31   am
    98   171   170    1
    99   125   134   am
   100   125   126    2
   101   134   135    1
   102    84    85    2
   103    82    73   am
   104    54    55    2
   105    54    53    1
   106    31    32    1
   107   165   164    2
   108   138   135    1
   109   138   139    1
   110   138   140    1
   111    32    33    1
   112    32    35    1
   113    56    53    1
   114    56    57    1
   115   135   136    1
   116    36    35    1
   117   164   163    1
   118    33    34    2
   119    53    52    1
   120    73    74    2
   121    73    72    1
   122    57    59   ar
   123    57    58   ar
   124    59    61   ar
   125   184   181    1
   126   136   137    2
   127    72    75    1
   128    72    71    1
   129   168   167    2
   130    58    60   ar
   131   163   162    1
   132   163   166    1
   133   183   182    2
   134   149   147   ar
   135   149   150   ar
   136    61    62   ar
   137   147   146   ar
   138    75    76    1
   139   182   181    1
   140    60    62   ar
   141   181   180    1
   142   167   166    1
   143   167   169   am
   144    71    65   am
   145    66    65    2
   146    76    77    1
   147   180   178   am
   148   150   148   ar
   149    69    67    1
   150    65    64    1
   151   146   148   ar
   152   146   145    1
   153    77    78    1
   154   145   142    1
   155   178   177    1
   156   178   179    2
   157   142   143    1
   158   142   141    1
   159    67    64    1
   160    67    68    1
   161    78    79    2
   162   177   176    1
   163    64    63    1
   164   143   144    2
   165    70    68    1
   166    79    81    1
   167    79    80    1
   168   159   157   ar
   169   159   161   ar
   170   151   152    1
   171   157   156   ar
   172   152   155    1
   173   152   153    1
   174   161   160   ar
   175   156   155    1
   176   156   158   ar
   177   154   153    2
   178   160   158   ar
