@<TRIPOS>MOLECULE
tmp/2qo1A01.pdb
 155 150 0 0 0
SMALL
GASTEIGER

@<TRIPOS>ATOM
      1  N         29.9520   35.9460   32.1720 N.3    91  ASN91      -0.1225
      2  CA        29.8560   37.2860   32.7290 C.3    91  ASN91       0.1785
      3  C         30.9560   38.1700   32.1400 C.2    91  ASN91       0.2597
      4  O         31.1710   39.3030   32.5790 O.2    91  ASN91      -0.2718
      5  CB        29.9160   37.2270   34.2570 C.3    91  ASN91       0.1169
      6  CG        28.7090   36.5210   34.8610 C.2    91  ASN91       0.2627
      7  OD1       27.6540   37.1220   35.0550 O.2    91  ASN91      -0.2716
      8  ND2       28.8590   35.2420   35.1560 N.am   91  ASN91      -0.0877
      9  N         31.6230   37.6370   31.1170 N.am   92  THR92      -0.1953
     10  CA        32.8220   38.2410   30.5260 C.3    92  THR92       0.1897
     11  C         32.8970   38.0880   28.9960 C.2    92  THR92       0.2313
     12  O         33.9890   37.9480   28.4340 O.2    92  THR92      -0.2863
     13  CB        34.1140   37.6440   31.1370 C.3    92  THR92       0.1794
     14  OG1       34.0380   36.2150   31.1270 O.3    92  THR92      -0.2208
     15  CG2       34.3260   38.1230   32.5690 C.3    92  THR92       0.0378
     16  N         32.7740   40.3570   26.2760 N.3    94  PHE94      -0.1241
     17  CA        32.9890   41.8100   26.3210 C.3    94  PHE94       0.1605
     18  C         32.3530   42.6020   25.1780 C.2    94  PHE94       0.2264
     19  O         32.8460   43.6610   24.7900 O.2    94  PHE94      -0.2867
     20  CB        34.4820   42.1210   26.4870 C.3    94  PHE94       0.0534
     21  CG        35.0700   41.5210   27.7260 C.ar   94  PHE94      -0.0203
     22  CD1       36.0240   40.5190   27.6420 C.ar   94  PHE94      -0.0042
     23  CD2       34.6300   41.9320   28.9870 C.ar   94  PHE94      -0.0042
     24  CE1       36.5590   39.9500   28.7940 C.ar   94  PHE94      -0.0003
     25  CE2       35.1480   41.3720   30.1430 C.ar   94  PHE94      -0.0003
     26  CZ        36.1160   40.3760   30.0480 C.ar   94  PHE94      -0.0000
     27  N         25.6210   36.0440   37.0280 N.3   121  GLY121     -0.1210
     28  CA        26.7550   35.9230   37.9350 C.3   121  GLY121      0.1956
     29  C         27.2440   34.4870   37.9980 C.2   121  GLY121      0.2612
     30  O         26.9290   33.6670   37.1250 O.2   121  GLY121     -0.2717
     31  N         28.0030   34.1850   39.0460 N.am  122  CYS122     -0.1970
     32  CA        28.5430   32.8440   39.2920 C.3   122  CYS122      0.1712
     33  C         27.4670   31.7420   39.2200 C.2   122  CYS122      0.2296
     34  O         27.7690   30.5870   38.8950 O.2   122  CYS122     -0.2864
     35  CB        29.2320   32.8070   40.6640 C.3   122  CYS122      0.0983
     36  SG        30.7150   33.8730   40.9120 S.3   122  CYS122     -0.0798
     37  N         38.2390   36.2600   33.0820 N.3   152  LEU152     -0.1245
     38  CA        38.1810   37.2450   34.1680 C.3   152  LEU152      0.1561
     39  C         39.4260   38.1200   34.3230 C.2   152  LEU152      0.2260
     40  O         39.3450   39.2150   34.8720 O.2   152  LEU152     -0.2867
     41  CB        37.8130   36.5740   35.4950 C.3   152  LEU152      0.0270
     42  CG        36.3210   36.2840   35.7080 C.3   152  LEU152      0.0019
     43  CD1       36.1020   35.0780   36.6030 C.3   152  LEU152      0.0001
     44  CD2       35.5790   37.4990   36.2560 C.3   152  LEU152      0.0001
     45  N         39.7100   41.9720   33.8340 N.3   155  THR155     -0.1218
     46  CA        38.8130   42.7480   34.6860 C.3   155  THR155      0.1862
     47  C         39.3880   42.9260   36.0910 C.2   155  THR155      0.2287
     48  O         38.8050   43.6110   36.9360 O.2   155  THR155     -0.2866
     49  CB        37.4100   42.0840   34.7790 C.3   155  THR155      0.1770
     50  OG1       37.4680   40.9170   35.6040 O.3   155  THR155     -0.2211
     51  CG2       36.8840   41.6990   33.4030 C.3   155  THR155      0.0375
     52  N         39.8110   35.7130   41.0310 N.3   167  PHE167     -0.1241
     53  CA        39.1350   35.3530   39.7870 C.3   167  PHE167      0.1605
     54  C         40.0960   34.8030   38.7400 C.2   167  PHE167      0.2264
     55  O         41.2680   35.1800   38.7090 O.2   167  PHE167     -0.2867
     56  CB        38.3330   36.5440   39.2580 C.3   167  PHE167      0.0534
     57  CG        37.4270   37.1600   40.2950 C.ar  167  PHE167     -0.0203
     58  CD1       37.7270   38.3930   40.8530 C.ar  167  PHE167     -0.0042
     59  CD2       36.2880   36.4880   40.7370 C.ar  167  PHE167     -0.0042
     60  CE1       36.8960   38.9580   41.8200 C.ar  167  PHE167     -0.0003
     61  CE2       35.4510   37.0480   41.7070 C.ar  167  PHE167     -0.0003
     62  CZ        35.7570   38.2850   42.2460 C.ar  167  PHE167     -0.0000
     63  N         29.2940   42.1740   44.6250 N.3   199  ILE199     -0.1231
     64  CA        30.2200   41.8130   43.5500 C.3   199  ILE199      0.1692
     65  C         29.7310   42.4980   42.2760 C.2   199  ILE199      0.2592
     66  O         28.6390   42.2040   41.7770 O.2   199  ILE199     -0.2718
     67  CB        30.2980   40.2900   43.3100 C.3   199  ILE199      0.0266
     68  CG1       30.5870   39.5400   44.6140 C.3   199  ILE199      0.0019
     69  CG2       31.3460   39.9710   42.2370 C.3   199  ILE199      0.0020
     70  CD1       30.2550   38.0430   44.5520 C.3   199  ILE199      0.0001
     71  N         30.5460   43.4090   41.7550 N.am  200  ARG200     -0.1966
     72  CA        30.1040   44.3280   40.7100 C.3   200  ARG200      0.1729
     73  C         31.2320   44.7870   39.7890 C.2   200  ARG200      0.2616
     74  O         32.4200   44.6420   40.1000 O.2   200  ARG200     -0.2715
     75  CB        29.4670   45.5640   41.3550 C.3   200  ARG200      0.0348
     76  CG        30.5000   46.5270   41.9330 C.3   200  ARG200      0.0492
     77  CD        29.8920   47.5450   42.8620 C.3   200  ARG200      0.2205
     78  NE        30.8940   48.5090   43.2990 N.pl3 200  ARG200     -0.0865
     79  CZ        31.6350   48.3890   44.3970 C.cat 200  ARG200      0.5346
     80  NH1       31.4950   47.3410   45.1990 N.pl3 200  ARG200      0.1354
     81  NH2       32.5200   49.3300   44.6920 N.pl3 200  ARG200      0.1354
     82  N         30.8320   45.3370   38.6500 N.am  201  GLN201     -0.1977
     83  CA        31.6910   46.1770   37.8390 C.3   201  GLN201      0.1601
     84  C         31.5000   47.5770   38.4090 C.2   201  GLN201      0.2287
     85  O         30.3990   48.1270   38.3390 O.2   201  GLN201     -0.2864
     86  CB        31.2420   46.1080   36.3770 C.3   201  GLN201      0.0394
     87  CG        32.0200   46.9830   35.4080 C.3   201  GLN201      0.0908
     88  CD        31.5680   46.7920   33.9730 C.2   201  GLN201      0.2608
     89  OE1       31.2410   45.6820   33.5570 O.2   201  GLN201     -0.2717
     90  NE2       31.5450   47.8770   33.2070 N.am  201  GLN201     -0.0878
     91  N         29.9190   50.7400   31.5780 N.3   205  TRP205     -0.1241
     92  CA        30.6210   50.9220   30.3120 C.3   205  TRP205      0.1605
     93  C         30.3420   52.2690   29.6330 C.2   205  TRP205      0.2264
     94  O         31.2670   52.9140   29.1330 O.2   205  TRP205     -0.2867
     95  CB        30.3400   49.7630   29.3530 C.3   205  TRP205      0.0550
     96  CG        31.0440   48.4780   29.7070 C.ar  205  TRP205      0.0003
     97  CD1       30.4650   47.2630   29.9080 C.ar  205  TRP205      0.0946
     98  CD2       32.4570   48.2840   29.8970 C.ar  205  TRP205      0.0152
     99  NE1       31.4210   46.3200   30.2080 N.ar  205  TRP205     -0.2442
    100  CE2       32.6510   46.9190   30.2110 C.ar  205  TRP205      0.0810
    101  CE3       33.5760   49.1300   29.8300 C.ar  205  TRP205      0.0012
    102  CZ2       33.9180   46.3790   30.4670 C.ar  205  TRP205      0.0191
    103  CZ3       34.8350   48.5950   30.0810 C.ar  205  TRP205      0.0001
    104  CH2       34.9970   47.2290   30.3950 C.ar  205  TRP205      0.0015
    105  N         39.3150   53.2940   34.4470 N.3   216  ARG216     -0.1231
    106  CA        38.5680   52.2350   33.7690 C.3   216  ARG216      0.1679
    107  C         37.8560   51.3330   34.7930 C.2   216  ARG216      0.2434
    108  O         38.2170   51.3320   35.9670 O.2   216  ARG216     -0.2733
    109  CB        39.4870   51.4290   32.8320 C.3   216  ARG216      0.0321
    110  CG        40.7750   50.9140   33.4690 C.3   216  ARG216      0.0489
    111  CD        41.2350   49.6140   32.8280 C.3   216  ARG216      0.2205
    112  NE        40.2840   48.5310   33.0760 N.pl3 216  ARG216     -0.0865
    113  CZ        40.4020   47.2940   32.6040 C.cat 216  ARG216      0.5346
    114  NH1       41.4380   46.9600   31.8470 N.pl3 216  ARG216      0.1354
    115  NH2       39.4780   46.3840   32.8920 N.pl3 216  ARG216      0.1354
    116  N         36.8270   50.5810   34.3590 N.am  217  PRO217     -0.2718
    117  CA        36.1680   49.6710   35.2930 C.3   217  PRO217      0.1535
    118  C         37.0160   48.4480   35.6340 C.2   217  PRO217      0.2599
    119  O         37.8620   48.0230   34.8410 O.2   217  PRO217     -0.2715
    120  CB        34.9120   49.2220   34.5370 C.3   217  PRO217      0.0310
    121  CG        34.8280   50.0880   33.3310 C.3   217  PRO217      0.0237
    122  CD        36.2130   50.5210   33.0240 C.3   217  PRO217      0.0939
    123  N         36.7760   47.9080   36.8220 N.am  218  PHE218     -0.1960
    124  CA        37.3920   46.6750   37.2700 C.3   218  PHE218      0.1771
    125  C         36.3270   45.8910   38.0260 C.2   218  PHE218      0.2619
    126  O         35.2660   46.4350   38.3230 O.2   218  PHE218     -0.2715
    127  CB        38.5800   46.9730   38.1890 C.3   218  PHE218      0.0574
    128  CG        39.8120   47.4710   37.4710 C.ar  218  PHE218     -0.0200
    129  CD1       40.4770   46.6640   36.5480 C.ar  218  PHE218     -0.0042
    130  CD2       40.3320   48.7300   37.7520 C.ar  218  PHE218     -0.0042
    131  CE1       41.6250   47.1120   35.8960 C.ar  218  PHE218     -0.0003
    132  CE2       41.4820   49.1880   37.1070 C.ar  218  PHE218     -0.0003
    133  CZ        42.1300   48.3750   36.1760 C.ar  218  PHE218     -0.0000
    134  N         36.5970   44.6260   38.3390 N.am  219  VAL219     -0.1977
    135  CA        35.7080   43.8670   39.2240 C.3   219  VAL219      0.1596
    136  C         36.0280   44.1710   40.6920 C.2   219  VAL219      0.2287
    137  O         37.1800   44.0960   41.1030 O.2   219  VAL219     -0.2864
    138  CB        35.7320   42.3310   38.9400 C.3   219  VAL219      0.0276
    139  CG1       37.1150   41.7280   39.1910 C.3   219  VAL219      0.0022
    140  CG2       34.6730   41.6190   39.7610 C.3   219  VAL219      0.0022
    141  N         33.7150   31.7630   38.1180 N.3   291  SER291     -0.1217
    142  CA        32.3030   32.1260   37.9860 C.3   291  SER291      0.1889
    143  C         31.4490   31.0590   37.2950 C.2   291  SER291      0.2288
    144  O         31.3460   29.9360   37.7790 O.2   291  SER291     -0.2866
    145  CB        32.1480   33.4730   37.2760 C.3   291  SER291      0.2089
    146  OG        33.3000   34.2770   37.4400 O.3   291  SER291     -0.2183
    147  N         26.9350   33.7520   43.9490 N.3   320  GLY320     -0.1210
    148  CA        27.7930   34.8750   43.5900 C.3   320  GLY320      0.1956
    149  C         27.0430   36.1390   43.2080 C.2   320  GLY320      0.2611
    150  O         25.9830   36.4430   43.7720 O.2   320  GLY320     -0.2717
    151  N         27.5980   36.8490   42.2220 N.am  321  ALA321     -0.1979
    152  CA        27.1220   38.1700   41.7690 C.3   321  ALA321      0.1597
    153  C         25.6170   38.3090   41.4710 C.2   321  ALA321      0.2287
    154  O         24.8980   37.3140   41.3160 O.2   321  ALA321     -0.2864
    155  CB        27.9470   38.6470   40.5870 C.3   321  ALA321      0.0319
@<TRIPOS>BOND
     1    19    18    2
     2    18    17    1
     3    16    17    1
     4    17    20    1
     5    20    21    1
     6    22    21   ar
     7    22    24   ar
     8    21    23   ar
     9    12    11    2
    10    24    26   ar
    11    23    25   ar
    12    11    10    1
    13    94    93    2
    14    95    96    1
    15    95    92    1
    16    93    92    1
    17    96    98   ar
    18    96    97   ar
    19   101    98   ar
    20   101   103   ar
    21    98   100   ar
    22    97    99   ar
    23    26    25   ar
    24   103   104   ar
    25    99   100   ar
    26   100   102   ar
    27    92    91    1
    28   104   102   ar
    29    10     9    1
    30    10    13    1
    31     9     3   am
    32    14    13    1
    33    13    15    1
    34   114   113    1
    35     3     4    2
    36     3     2    1
    37     1     2    1
    38   113   115    1
    39   113   112    2
    40     2     5    1
    41   111   112    1
    42   111   110    1
    43   109   110    1
    44   109   106    1
    45   122   121    1
    46   122   116    1
    47    37    38    1
    48    90    88   am
    49   121   120    1
    50    51    49    1
    51    89    88    2
    52   106   105    1
    53   106   107    1
    54    45    46    1
    55    88    87    1
    56    38    39    1
    57    38    41    1
    58     5     6    1
    59    39    40    2
    60   116   107   am
    61   116   117    1
    62   120   117    1
    63    46    49    1
    64    46    47    1
    65    49    50    1
    66   107   108    2
    67   119   118    2
    68     6     7    2
    69     6     8   am
    70   117   118    1
    71    87    86    1
    72    41    42    1
    73   118   123   am
    74    42    44    1
    75    42    43    1
    76   131   133   ar
    77   131   129   ar
    78    47    48    2
    79   133   132   ar
    80    86    83    1
    81   129   128   ar
    82   123   124    1
    83    27    28    1
    84   132   130   ar
    85    30    29    2
    86   124   125    1
    87   124   127    1
    88   145   146    1
    89   145   142    1
    90   143   144    2
    91   143   142    1
    92   128   130   ar
    93   128   127    1
    94    83    84    1
    95    83    82    1
    96    28    29    1
    97   142   141    1
    98    29    31   am
    99   125   126    2
   100   125   134   am
   101    85    84    2
   102   134   135    1
   103    82    73   am
   104    55    54    2
   105    54    53    1
   106    34    33    2
   107   138   139    1
   108   138   135    1
   109   138   140    1
   110    31    32    1
   111    33    32    1
   112   135   136    1
   113    56    53    1
   114    56    57    1
   115    32    35    1
   116    53    52    1
   117    73    74    2
   118    73    72    1
   119    57    59   ar
   120    57    58   ar
   121   155   152    1
   122    35    36    1
   123   136   137    2
   124    72    75    1
   125    72    71    1
   126    59    61   ar
   127    58    60   ar
   128   154   153    2
   129    75    76    1
   130   153   152    1
   131    61    62   ar
   132    71    65   am
   133   152   151    1
   134    66    65    2
   135    60    62   ar
   136    76    77    1
   137   151   149   am
   138    69    67    1
   139    65    64    1
   140    77    78    1
   141   149   148    1
   142   149   150    2
   143    78    79    2
   144    67    64    1
   145    67    68    1
   146    64    63    1
   147   148   147    1
   148    79    81    1
   149    79    80    1
   150    70    68    1
