@<TRIPOS>MOLECULE
tmp/2qo1A00.pdb
 162 156 0 0 0
SMALL
GASTEIGER

@<TRIPOS>ATOM
      1  N         49.3490   33.2850   53.0220 N.3    42  TRP42      -0.1241
      2  CA        48.1880   34.0910   53.3960 C.3    42  TRP42       0.1605
      3  C         47.0140   33.8110   52.4490 C.2    42  TRP42       0.2264
      4  O         45.8840   33.6160   52.8930 O.2    42  TRP42      -0.2867
      5  CB        48.5460   35.5800   53.3920 C.3    42  TRP42       0.0550
      6  CG        47.5630   36.4570   54.1120 C.ar   42  TRP42       0.0003
      7  CD1       47.6140   36.8310   55.4210 C.ar   42  TRP42       0.0946
      8  CD2       46.3950   37.0840   53.5600 C.ar   42  TRP42       0.0152
      9  NE1       46.5510   37.6470   55.7240 N.ar   42  TRP42      -0.2442
     10  CE2       45.7870   37.8200   54.6020 C.ar   42  TRP42       0.0810
     11  CE3       45.8010   37.0910   52.2890 C.ar   42  TRP42       0.0012
     12  CZ2       44.6080   38.5570   54.4160 C.ar   42  TRP42       0.0191
     13  CZ3       44.6230   37.8250   52.1000 C.ar   42  TRP42       0.0001
     14  CH2       44.0430   38.5480   53.1630 C.ar   42  TRP42       0.0015
     15  N         43.4660   31.6290   53.5830 N.3    46  ARG46      -0.1231
     16  CA        42.2430   32.4240   53.5550 C.3    46  ARG46       0.1694
     17  C         41.2920   32.0780   52.4010 C.2    46  ARG46       0.2592
     18  O         40.1120   32.4130   52.4610 O.2    46  ARG46      -0.2718
     19  CB        42.5670   33.9220   53.5380 C.3    46  ARG46       0.0321
     20  CG        42.8380   34.5260   54.9070 C.3    46  ARG46       0.0489
     21  CD        44.3210   34.5910   55.2090 C.3    46  ARG46       0.2205
     22  NE        44.6130   35.2790   56.4660 N.pl3  46  ARG46      -0.0865
     23  CZ        45.3720   34.7790   57.4370 C.cat  46  ARG46       0.5346
     24  NH1       45.9300   33.5850   57.2970 N.pl3  46  ARG46       0.1354
     25  NH2       45.5840   35.4760   58.5450 N.pl3  46  ARG46       0.1354
     26  N         41.7960   31.4290   51.3520 N.am   47  THR47      -0.1953
     27  CA        40.9630   31.1410   50.1770 C.3    47  THR47       0.1897
     28  C         41.0050   29.6890   49.7200 C.2    47  THR47       0.2313
     29  O         40.0110   29.1820   49.2000 O.2    47  THR47      -0.2863
     30  CB        41.3020   32.0400   48.9510 C.3    47  THR47       0.1794
     31  OG1       42.5540   31.6410   48.3820 O.3    47  THR47      -0.2208
     32  CG2       41.3430   33.5210   49.3250 C.3    47  THR47       0.0378
     33  N         28.0030   34.1850   39.0460 N.3   122  CYS122     -0.1235
     34  CA        28.5430   32.8440   39.2920 C.3   122  CYS122      0.1677
     35  C         27.4670   31.7420   39.2200 C.2   122  CYS122      0.2270
     36  O         27.7690   30.5870   38.8950 O.2   122  CYS122     -0.2867
     37  CB        29.2320   32.8070   40.6640 C.3   122  CYS122      0.0956
     38  SG        30.7150   33.8730   40.9120 S.3   122  CYS122     -0.0801
     39  N         41.9410   42.9270   47.9220 N.3   162  GLY162     -0.1225
     40  CA        40.8400   42.0810   48.3510 C.3   162  GLY162      0.1811
     41  C         40.3480   41.0450   47.3590 C.2   162  GLY162      0.2280
     42  O         39.6670   40.1040   47.7580 O.2   162  GLY162     -0.2866
     43  N         43.6720   38.0160   43.8010 N.3   165  PHE165     -0.1227
     44  CA        44.0710   36.6100   43.9530 C.3   165  PHE165      0.1736
     45  C         42.9120   35.6220   43.7870 C.2   165  PHE165      0.2595
     46  O         43.0690   34.4340   44.0590 O.2   165  PHE165     -0.2718
     47  CB        44.7390   36.4010   45.3240 C.3   165  PHE165      0.0547
     48  CG        43.9840   37.0270   46.4700 C.ar  165  PHE165     -0.0202
     49  CD1       42.9080   36.3650   47.0630 C.ar  165  PHE165     -0.0042
     50  CD2       44.3450   38.2840   46.9540 C.ar  165  PHE165     -0.0042
     51  CE1       42.1950   36.9500   48.1170 C.ar  165  PHE165     -0.0003
     52  CE2       43.6400   38.8740   48.0120 C.ar  165  PHE165     -0.0003
     53  CZ        42.5600   38.2020   48.5910 C.ar  165  PHE165     -0.0000
     54  N         41.7640   36.1080   43.3230 N.am  166  ILE166     -0.1966
     55  CA        40.5260   35.3250   43.3450 C.3   166  ILE166      0.1727
     56  C         40.0480   34.8070   41.9740 C.2   166  ILE166      0.2616
     57  O         39.9010   33.5970   41.7820 O.2   166  ILE166     -0.2715
     58  CB        39.3940   36.1010   44.1080 C.3   166  ILE166      0.0290
     59  CG1       39.6930   36.0990   45.6140 C.3   166  ILE166      0.0022
     60  CG2       38.0160   35.5020   43.8460 C.3   166  ILE166      0.0023
     61  CD1       38.8390   37.0390   46.4560 C.3   166  ILE166      0.0001
     62  N         39.8110   35.7130   41.0310 N.am  167  PHE167     -0.1974
     63  CA        39.1350   35.3530   39.7870 C.3   167  PHE167      0.1639
     64  C         40.0960   34.8030   38.7400 C.2   167  PHE167      0.2290
     65  O         41.2680   35.1800   38.7090 O.2   167  PHE167     -0.2864
     66  CB        38.3330   36.5440   39.2580 C.3   167  PHE167      0.0560
     67  CG        37.4270   37.1600   40.2950 C.ar  167  PHE167     -0.0200
     68  CD1       37.7270   38.3930   40.8530 C.ar  167  PHE167     -0.0042
     69  CD2       36.2880   36.4880   40.7370 C.ar  167  PHE167     -0.0042
     70  CE1       36.8960   38.9580   41.8200 C.ar  167  PHE167     -0.0003
     71  CE2       35.4510   37.0480   41.7070 C.ar  167  PHE167     -0.0003
     72  CZ        35.7570   38.2850   42.2460 C.ar  167  PHE167     -0.0000
     73  N         29.2940   42.1740   44.6250 N.3   199  ILE199     -0.1245
     74  CA        30.2200   41.8130   43.5500 C.3   199  ILE199      0.1561
     75  C         29.7310   42.4980   42.2760 C.2   199  ILE199      0.2260
     76  O         28.6390   42.2040   41.7770 O.2   199  ILE199     -0.2867
     77  CB        30.2980   40.2900   43.3100 C.3   199  ILE199      0.0252
     78  CG1       30.5870   39.5400   44.6140 C.3   199  ILE199      0.0019
     79  CG2       31.3460   39.9710   42.2370 C.3   199  ILE199      0.0019
     80  CD1       30.2550   38.0430   44.5520 C.3   199  ILE199      0.0001
     81  N         34.7500   43.6160   44.9610 N.3   221  LEU221     -0.1245
     82  CA        34.1860   42.5870   45.8130 C.3   221  LEU221      0.1561
     83  C         34.1760   43.0480   47.2510 C.2   221  LEU221      0.2260
     84  O         35.2120   43.4350   47.7870 O.2   221  LEU221     -0.2867
     85  CB        35.0200   41.3070   45.6900 C.3   221  LEU221      0.0270
     86  CG        34.8430   40.1930   46.7230 C.3   221  LEU221      0.0019
     87  CD1       33.7580   39.2160   46.3110 C.3   221  LEU221      0.0001
     88  CD2       36.1550   39.4740   46.9050 C.3   221  LEU221      0.0001
     89  N         34.0550   41.2760   50.0490 N.3   223  GLY223     -0.1210
     90  CA        34.2430   39.8970   50.5310 C.3   223  GLY223      0.1940
     91  C         33.5410   39.4350   51.8050 C.2   223  GLY223      0.2453
     92  O         32.8620   38.4050   51.7870 O.2   223  GLY223     -0.2732
     93  N         33.6990   40.1690   52.9250 N.am  224  PRO224     -0.2728
     94  CA        33.0150   39.6750   54.1350 C.3   224  PRO224      0.1401
     95  C         31.4920   39.4820   53.9590 C.2   224  PRO224      0.2269
     96  O         30.9540   38.4630   54.4100 O.2   224  PRO224     -0.2865
     97  CB        33.3470   40.7370   55.2020 C.3   224  PRO224      0.0296
     98  CG        34.5950   41.4200   54.6910 C.3   224  PRO224      0.0237
     99  CD        34.4630   41.4070   53.1850 C.3   224  PRO224      0.0939
    100  N         29.9220   38.7420   51.1900 N.3   226  VAL226     -0.1231
    101  CA        29.7920   37.5220   50.3880 C.3   226  VAL226      0.1692
    102  C         30.0180   36.2490   51.2230 C.2   226  VAL226      0.2592
    103  O         29.2570   35.2930   51.1190 O.2   226  VAL226     -0.2718
    104  CB        30.7270   37.5390   49.1400 C.3   226  VAL226      0.0266
    105  CG1       30.3310   36.4360   48.1590 C.3   226  VAL226      0.0020
    106  CG2       30.6780   38.8890   48.4420 C.3   226  VAL226      0.0020
    107  N         31.0580   36.2520   52.0500 N.am  227  PHE227     -0.1976
    108  CA        31.3190   35.1570   52.9930 C.3   227  PHE227      0.1639
    109  C         30.0990   34.8480   53.8630 C.2   227  PHE227      0.2290
    110  O         29.6640   33.7030   53.9400 O.2   227  PHE227     -0.2864
    111  CB        32.5160   35.5020   53.8870 C.3   227  PHE227      0.0560
    112  CG        32.9320   34.3870   54.8080 C.ar  227  PHE227     -0.0200
    113  CD1       33.9210   33.4830   54.4210 C.ar  227  PHE227     -0.0042
    114  CD2       32.3430   34.2430   56.0700 C.ar  227  PHE227     -0.0042
    115  CE1       34.3120   32.4450   55.2670 C.ar  227  PHE227     -0.0003
    116  CE2       32.7250   33.2060   56.9250 C.ar  227  PHE227     -0.0003
    117  CZ        33.7130   32.3080   56.5240 C.ar  227  PHE227     -0.0000
    118  N         34.2170   29.4580   45.1360 N.3   260  ALA260     -0.1231
    119  CA        34.3940   30.8570   45.4990 C.3   260  ALA260      0.1694
    120  C         35.5040   31.0010   46.5230 C.2   260  ALA260      0.2592
    121  O         36.4080   31.8140   46.3530 O.2   260  ALA260     -0.2718
    122  CB        33.0890   31.4420   46.0360 C.3   260  ALA260      0.0304
    123  N         35.4260   30.1910   47.5770 N.am  261  ASN261     -0.1974
    124  CA        36.3360   30.2610   48.7170 C.3   261  ASN261      0.1688
    125  C         36.2070   28.9790   49.5430 C.2   261  ASN261      0.2292
    126  O         35.1090   28.6210   49.9820 O.2   261  ASN261     -0.2864
    127  CB        36.0290   31.5030   49.5680 C.3   261  ASN261      0.1181
    128  CG        36.9050   31.6070   50.8020 C.2   261  ASN261      0.2629
    129  OD1       36.7700   30.8290   51.7470 O.2   261  ASN261     -0.2716
    130  ND2       37.7950   32.5930   50.8080 N.am  261  ASN261     -0.0877
    131  N         34.3800   28.9450   52.9690 N.3   264  ILE264     -0.1245
    132  CA        32.9200   28.9350   52.7790 C.3   264  ILE264      0.1561
    133  C         32.4160   27.5060   52.5390 C.2   264  ILE264      0.2260
    134  O         31.4990   27.0300   53.2220 O.2   264  ILE264     -0.2867
    135  CB        32.4770   29.8450   51.6010 C.3   264  ILE264      0.0252
    136  CG1       32.6880   31.3190   51.9450 C.3   264  ILE264      0.0019
    137  CG2       31.0130   29.5770   51.2210 C.3   264  ILE264      0.0019
    138  CD1       32.6450   32.2320   50.7580 C.3   264  ILE264      0.0001
    139  N         38.5780   31.0860   41.1940 N.3   289  ASN289     -0.1240
    140  CA        37.1510   31.3340   41.0420 C.3   289  ASN289      0.1653
    141  C         36.8000   31.7030   39.6020 C.2   289  ASN289      0.2266
    142  O         37.0750   32.8140   39.1610 O.2   289  ASN289     -0.2867
    143  CB        36.7290   32.4340   42.0170 C.3   289  ASN289      0.1155
    144  CG        35.2240   32.6380   42.0780 C.2   289  ASN289      0.2627
    145  OD1       34.5240   32.5600   41.0700 O.2   289  ASN289     -0.2716
    146  ND2       34.7240   32.9260   43.2700 N.am  289  ASN289     -0.0877
    147  N         26.5750   30.1670   43.5840 N.3   319  TYR319     -0.1227
    148  CA        26.3570   31.4200   44.3090 C.3   319  TYR319      0.1736
    149  C         27.3620   32.4930   43.8890 C.2   319  TYR319      0.2596
    150  O         28.4880   32.1790   43.5050 O.2   319  TYR319     -0.2718
    151  CB        26.3670   31.2070   45.8300 C.3   319  TYR319      0.0548
    152  CG        27.6360   30.6090   46.4060 C.ar  319  TYR319     -0.0200
    153  CD1       28.6200   31.4210   46.9570 C.ar  319  TYR319     -0.0009
    154  CD2       27.8390   29.2280   46.4230 C.ar  319  TYR319     -0.0009
    155  CE1       29.7770   30.8760   47.4970 C.ar  319  TYR319      0.0417
    156  CE2       28.9930   28.6740   46.9610 C.ar  319  TYR319      0.0417
    157  CZ        29.9580   29.5020   47.4960 C.ar  319  TYR319      0.1957
    158  OH        31.1040   28.9610   48.0360 O.3   319  TYR319     -0.2866
    159  N         26.9350   33.7520   43.9490 N.am  320  GLY320     -0.1957
    160  CA        27.7930   34.8750   43.5900 C.3   320  GLY320      0.1869
    161  C         27.0430   36.1390   43.2080 C.2   320  GLY320      0.2309
    162  O         25.9830   36.4430   43.7720 O.2   320  GLY320     -0.2863
@<TRIPOS>BOND
     1    65    64    2
     2    64    63    1
     3    36    35    2
     4    33    34    1
     5   142   141    2
     6    35    34    1
     7    66    63    1
     8    66    67    1
     9    34    37    1
    10   141   140    1
    11    63    62    1
    12    67    69   ar
    13    67    68   ar
    14    37    38    1
    15    69    71   ar
    16    68    70   ar
    17    62    56   am
    18   140   139    1
    19   140   143    1
    20   145   144    2
    21    71    72   ar
    22    76    75    2
    23    57    56    2
    24    70    72   ar
    25    56    55    1
    26   143   144    1
    27   144   146   am
    28    79    77    1
    29    75    74    1
    30   161   160    1
    31   161   162    2
    32    77    74    1
    33    77    78    1
    34    54    55    1
    35    54    45   am
    36    55    58    1
    37   150   149    2
    38    74    73    1
    39   147   148    1
    40   160   159    1
    41    45    44    1
    42    45    46    2
    43    43    44    1
    44    60    58    1
    45   149   159   am
    46   149   148    1
    47    44    47    1
    48    58    59    1
    49   148   151    1
    50    80    78    1
    51    81    82    1
    52   118   119    1
    53    47    48    1
    54   119   122    1
    55   119   120    1
    56    59    61    1
    57    85    82    1
    58    85    86    1
    59    82    83    1
    60   151   152    1
    61    87    86    1
    62   121   120    2
    63   152   154   ar
    64   152   153   ar
    65   154   156   ar
    66    48    50   ar
    67    48    49   ar
    68   120   123   am
    69    86    88    1
    70    50    52   ar
    71   153   155   ar
    72   156   157   ar
    73    49    51   ar
    74    83    84    2
    75    41    42    2
    76    41    40    1
    77   157   155   ar
    78   157   158    1
    79   123   124    1
    80    39    40    1
    81    52    53   ar
    82    51    53   ar
    83   105   104    1
    84    31    30    1
    85   106   104    1
    86   124   125    1
    87   124   127    1
    88    30    32    1
    89    30    27    1
    90   104   101    1
    91    29    28    2
    92   125   126    2
    93   127   128    1
    94    28    27    1
    95    89    90    1
    96    27    26    1
    97   101   100    1
    98   101   102    1
    99    90    91    1
   100   138   136    1
   101   128   130   am
   102   128   129    2
   103   103   102    2
   104   137   135    1
   105   102   107   am
   106    26    17   am
   107   135   136    1
   108   135   132    1
   109    92    91    2
   110    91    93   am
   111   107   108    1
   112    13    11   ar
   113    13    14   ar
   114    11     8   ar
   115    17    18    2
   116    17    16    1
   117     3     4    2
   118     3     2    1
   119   133   132    1
   120   133   134    2
   121   132   131    1
   122    93    99    1
   123    93    94    1
   124   108   109    1
   125   108   111    1
   126     1     2    1
   127    14    12   ar
   128    99    98    1
   129     5     2    1
   130     5     6    1
   131    19    16    1
   132    19    20    1
   133    16    15    1
   134     8     6   ar
   135     8    10   ar
   136   109   110    2
   137   111   112    1
   138    95    94    1
   139    95    96    2
   140     6     7   ar
   141    94    97    1
   142    12    10   ar
   143   113   112   ar
   144   113   115   ar
   145    10     9   ar
   146    98    97    1
   147   112   114   ar
   148    20    21    1
   149    21    22    1
   150   115   117   ar
   151     7     9   ar
   152   114   116   ar
   153    22    23    2
   154   117   116   ar
   155    24    23    1
   156    23    25    1
