@<TRIPOS>MOLECULE
tmp/2qo3B00.pdb
 110 106 0 0 0
SMALL
GASTEIGER

@<TRIPOS>ATOM
      1  N         -1.5840    5.9780   35.9380 N.3   170  ALA170     -0.1231
      2  CA        -2.6800    6.4030   36.7830 C.3   170  ALA170      0.1694
      3  C         -4.0270    6.1690   36.0980 C.2   170  ALA170      0.2592
      4  O         -4.2160    5.1150   35.4520 O.2   170  ALA170     -0.2718
      5  CB        -2.4940    7.8320   37.2170 C.3   170  ALA170      0.0304
      6  N         -4.9760    7.0010   36.2270 N.am  171  CYS171     -0.1970
      7  CA        -6.3520    7.0160   35.7420 C.3   171  CYS171      0.1712
      8  C         -6.3630    6.9150   34.1990 C.2   171  CYS171      0.2296
      9  O         -7.3250    6.4820   33.5270 O.2   171  CYS171     -0.2864
     10  CB        -7.0230    8.2670   36.3630 C.3   171  CYS171      0.0983
     11  SG        -5.9580    9.2550   37.4690 S.3   171  CYS171     -0.0798
     12  N         -6.6290    5.7370   49.8810 N.3   206  VAL206     -0.1245
     13  CA        -7.0530    6.7750   48.9180 C.3   206  VAL206      0.1561
     14  C         -8.1060    7.7210   49.4960 C.2   206  VAL206      0.2260
     15  O         -8.1800    8.8760   49.0970 O.2   206  VAL206     -0.2867
     16  CB        -7.5950    6.2230   47.5760 C.3   206  VAL206      0.0252
     17  CG1       -6.5170    5.5070   46.8110 C.3   206  VAL206      0.0019
     18  CG2       -8.8100    5.3430   47.8090 C.3   206  VAL206      0.0019
     19  N         -7.0200   11.7310   49.8710 N.3   210  PHE210     -0.1241
     20  CA        -7.7830   12.7380   49.1150 C.3   210  PHE210      0.1605
     21  C         -8.7580   13.5990   49.9470 C.2   210  PHE210      0.2264
     22  O         -9.1810   14.6570   49.5150 O.2   210  PHE210     -0.2867
     23  CB        -8.5080   12.1050   47.9380 C.3   210  PHE210      0.0534
     24  CG        -7.6320   11.8490   46.7750 C.ar  210  PHE210     -0.0203
     25  CD1       -6.8260   10.7220   46.7240 C.ar  210  PHE210     -0.0042
     26  CD2       -7.5990   12.7190   45.7220 C.ar  210  PHE210     -0.0042
     27  CE1       -5.9970   10.4710   45.6300 C.ar  210  PHE210     -0.0003
     28  CE2       -6.7520   12.4710   44.6290 C.ar  210  PHE210     -0.0003
     29  CZ        -5.9570   11.3500   44.6000 C.ar  210  PHE210     -0.0000
     30  N        -14.0900   13.7470   43.2960 N.3   232  PHE232     -0.1241
     31  CA       -14.1170   12.3750   42.8870 C.3   232  PHE232      0.1605
     32  C        -14.9680   11.5640   43.8100 C.2   232  PHE232      0.2264
     33  O        -15.0830   11.8630   44.9980 O.2   232  PHE232     -0.2867
     34  CB       -12.7450   11.7400   42.9760 C.3   232  PHE232      0.0534
     35  CG       -11.6670   12.4550   42.2470 C.ar  232  PHE232     -0.0203
     36  CD1      -10.7410   13.1970   42.9400 C.ar  232  PHE232     -0.0042
     37  CD2      -11.5280   12.3200   40.8950 C.ar  232  PHE232     -0.0042
     38  CE1       -9.6960   13.8200   42.2970 C.ar  232  PHE232     -0.0003
     39  CE2      -10.4830   12.9690   40.2220 C.ar  232  PHE232     -0.0003
     40  CZ        -9.5740   13.7210   40.9330 C.ar  232  PHE232     -0.0000
     41  N        -14.4770    7.4470   44.4330 N.3   234  PHE234     -0.1241
     42  CA       -13.6380    6.3170   44.0780 C.3   234  PHE234      0.1605
     43  C        -14.3420    5.0270   44.2160 C.2   234  PHE234      0.2264
     44  O        -15.1570    4.8910   45.1080 O.2   234  PHE234     -0.2867
     45  CB       -12.4000    6.2880   44.9260 C.3   234  PHE234      0.0534
     46  CG       -11.4810    7.4060   44.6420 C.ar  234  PHE234     -0.0203
     47  CD1      -10.8460    7.4980   43.3880 C.ar  234  PHE234     -0.0042
     48  CD2      -11.2700    8.3890   45.5850 C.ar  234  PHE234     -0.0042
     49  CE1      -10.0010    8.5190   43.0990 C.ar  234  PHE234     -0.0003
     50  CE2      -10.4380    9.4390   45.2930 C.ar  234  PHE234     -0.0003
     51  CZ        -9.7980    9.5020   44.0420 C.ar  234  PHE234     -0.0000
     52  N        -13.6850   11.0080   30.1040 N.3   306  HIS306     -0.1241
     53  CA       -13.0130   10.7840   31.3560 C.3   306  HIS306      0.1621
     54  C        -13.9230   11.1590   32.5270 C.2   306  HIS306      0.2264
     55  O        -13.9950   10.4440   33.5230 O.2   306  HIS306     -0.2867
     56  CB       -11.7220   11.5830   31.4200 C.3   306  HIS306      0.0745
     57  CG       -10.9280   11.3330   32.6550 C.ar  306  HIS306      0.0817
     58  ND1      -10.3830   12.3510   33.3990 N.ar  306  HIS306     -0.2268
     59  CD2      -10.6070   10.1810   33.2960 C.ar  306  HIS306      0.1154
     60  CE1       -9.7300   11.8460   34.4290 C.ar  306  HIS306      0.1986
     61  NE2       -9.8510   10.5310   34.3910 N.ar  306  HIS306     -0.2212
     62  N        -14.6560   12.9630   35.5860 N.3   308  THR308     -0.1218
     63  CA       -14.4710   12.5780   36.9960 C.3   308  THR308      0.1862
     64  C        -15.4350   13.3060   37.9300 C.2   308  THR308      0.2287
     65  O        -15.7960   12.8090   39.0170 O.2   308  THR308     -0.2866
     66  CB       -13.0320   12.7920   37.4660 C.3   308  THR308      0.1770
     67  OG1      -12.5920   14.1000   37.1000 O.3   308  THR308     -0.2211
     68  CG2      -12.1310   11.8070   36.8130 C.3   308  THR308      0.0375
     69  N        -15.2900    6.1930   39.8790 N.3   346  HIS346     -0.1241
     70  CA       -14.0240    6.2700   39.2010 C.3   346  HIS346      0.1621
     71  C        -13.1380    5.0810   39.5910 C.2   346  HIS346      0.2264
     72  O        -12.6730    4.9950   40.7180 O.2   346  HIS346     -0.2867
     73  CB       -13.4030    7.5720   39.6620 C.3   346  HIS346      0.0745
     74  CG       -12.0660    7.8500   39.0720 C.ar  346  HIS346      0.0817
     75  ND1      -11.5560    7.1310   38.0190 N.ar  346  HIS346     -0.2268
     76  CD2      -11.1550    8.8000   39.3600 C.ar  346  HIS346      0.1154
     77  CE1      -10.3810    7.6190   37.6920 C.ar  346  HIS346      0.1986
     78  NE2      -10.1120    8.6260   38.4960 N.ar  346  HIS346     -0.2212
     79  N        -10.2700    3.9850   38.7030 N.3   348  GLN348     -0.1245
     80  CA        -8.8320    4.1910   38.7760 C.3   348  GLN348      0.1566
     81  C         -8.1840    3.5290   37.6020 C.2   348  GLN348      0.2260
     82  O         -8.4090    3.9570   36.4750 O.2   348  GLN348     -0.2867
     83  CB        -8.3320    3.7170   40.1110 C.3   348  GLN348      0.0367
     84  CG        -8.7250    4.6900   41.2410 C.3   348  GLN348      0.0905
     85  CD        -8.9960    4.0160   42.5630 C.2   348  GLN348      0.2608
     86  OE1      -10.0230    3.3750   42.7430 O.2   348  GLN348     -0.2717
     87  NE2       -8.0830    4.1550   43.4910 N.am  348  GLN348     -0.0878
     88  N         -7.6900   10.4830   31.2440 N.3   411  PHE411     -0.1227
     89  CA        -6.6060   11.4950   31.4840 C.3   411  PHE411      0.1736
     90  C         -6.0520   11.4320   32.8990 C.2   411  PHE411      0.2596
     91  O         -6.6680   11.9660   33.8050 O.2   411  PHE411     -0.2718
     92  CB        -7.1010   12.9420   31.2560 C.3   411  PHE411      0.0547
     93  CG        -7.9650   13.1410   30.0180 C.ar  411  PHE411     -0.0202
     94  CD1       -7.5480   12.7110   28.7570 C.ar  411  PHE411     -0.0042
     95  CD2       -9.2000   13.7950   30.1210 C.ar  411  PHE411     -0.0042
     96  CE1       -8.3580   12.9050   27.6090 C.ar  411  PHE411     -0.0003
     97  CE2      -10.0100   14.0100   29.0070 C.ar  411  PHE411     -0.0003
     98  CZ        -9.5760   13.5710   27.7390 C.ar  411  PHE411     -0.0000
     99  N         -4.8900   10.8420   33.1200 N.am  412  GLY412     -0.1942
    100  CA        -4.3870   10.7210   34.5040 C.3   412  GLY412      0.2014
    101  C         -3.7700   11.9680   35.1620 C.2   412  GLY412      0.2638
    102  O         -3.4190   12.9210   34.4860 O.2   412  GLY412     -0.2714
    103  N         -3.5900   11.9340   36.4900 N.am  413  ILE413     -0.1977
    104  CA        -2.9630   13.0500   37.2030 C.3   413  ILE413      0.1596
    105  C         -1.4680   13.2230   36.8770 C.2   413  ILE413      0.2287
    106  O         -0.9090   14.2820   37.1780 O.2   413  ILE413     -0.2864
    107  CB        -3.1050   12.9380   38.7430 C.3   413  ILE413      0.0276
    108  CG1       -1.7530   12.7150   39.4230 C.3   413  ILE413      0.0022
    109  CG2       -3.9420   11.7360   39.0810 C.3   413  ILE413      0.0022
    110  CD1       -1.3190   11.2010   39.4260 C.3   413  ILE413      0.0001
@<TRIPOS>BOND
     1    96    98   ar
     2    96    94   ar
     3    98    97   ar
     4    94    93   ar
     5    97    95   ar
     6    93    95   ar
     7    93    92    1
     8    52    53    1
     9    88    89    1
    10    92    89    1
    11    53    56    1
    12    53    54    1
    13    56    57    1
    14    89    90    1
    15    54    55    2
    16    57    59   ar
    17    57    58   ar
    18    90    99   am
    19    90    91    2
    20    99   100    1
    21    59    61   ar
    22    58    60   ar
    23     9     8    2
    24     8     7    1
    25    61    60   ar
    26   102   101    2
    27   100   101    1
    28   101   103   am
    29     4     3    2
    30    62    63    1
    31     7     6    1
    32     7    10    1
    33     1     2    1
    34     3     6   am
    35     3     2    1
    36    10    11    1
    37    82    81    2
    38   103   104    1
    39     2     5    1
    40    68    66    1
    41   105   106    2
    42   105   104    1
    43    63    66    1
    44    63    64    1
    45    67    66    1
    46   104   107    1
    47    81    80    1
    48    77    75   ar
    49    77    78   ar
    50    64    65    2
    51    75    74   ar
    52    78    76   ar
    53    79    80    1
    54   107   109    1
    55   107   108    1
    56    80    83    1
    57    74    76   ar
    58    74    73    1
    59    70    71    1
    60    70    73    1
    61    70    69    1
    62   108   110    1
    63    71    72    2
    64    83    84    1
    65    39    37   ar
    66    39    40   ar
    67    37    35   ar
    68    40    38   ar
    69    84    85    1
    70    35    36   ar
    71    35    34    1
    72    38    36   ar
    73    85    86    2
    74    85    87   am
    75    31    34    1
    76    31    30    1
    77    31    32    1
    78    49    47   ar
    79    49    51   ar
    80    47    46   ar
    81    32    33    2
    82    51    50   ar
    83    42    43    1
    84    42    41    1
    85    42    45    1
    86    43    44    2
    87    29    28   ar
    88    29    27   ar
    89    28    26   ar
    90    46    45    1
    91    46    48   ar
    92    50    48   ar
    93    27    25   ar
    94    26    24   ar
    95    25    24   ar
    96    24    23    1
    97    17    16    1
    98    16    18    1
    99    16    13    1
   100    23    20    1
   101    13    14    1
   102    13    12    1
   103    15    14    2
   104    20    19    1
   105    20    21    1
   106    22    21    2
