@<TRIPOS>MOLECULE
tmp/2qo8A01.pdb
 129 126 0 0 0
SMALL
GASTEIGER

@<TRIPOS>ATOM
      1  N        -12.7020    6.2730   11.0820 N.3    91  GLN91      -0.1245
      2  CA       -12.3870    5.1160   10.2460 C.3    91  GLN91       0.1566
      3  C        -12.5250    3.8280   11.0280 C.2    91  GLN91       0.2260
      4  O        -12.6270    3.8510   12.2530 O.2    91  GLN91      -0.2867
      5  CB       -10.9390    5.2080    9.7360 C.3    91  GLN91       0.0367
      6  CG        -9.8760    5.2510   10.8560 C.3    91  GLN91       0.0905
      7  CD        -9.0420    3.9770   10.9660 C.2    91  GLN91       0.2608
      8  OE1       -9.5750    2.8690   11.0480 O.2    91  GLN91      -0.2717
      9  NE2       -7.7250    4.1380   10.9830 N.am   91  GLN91      -0.0878
     10  N        -11.1680   -0.5330   10.8100 N.3    93  HIS93      -0.1241
     11  CA       -10.3010   -1.5040   10.1670 C.3    93  HIS93       0.1621
     12  C        -10.3200   -2.7710   11.0050 C.2    93  HIS93       0.2264
     13  O        -10.9420   -2.8100   12.0680 O.2    93  HIS93      -0.2867
     14  CB        -8.8740   -0.9720   10.0910 C.3    93  HIS93       0.0745
     15  CG        -8.2790   -0.6750   11.4290 C.ar   93  HIS93       0.0817
     16  ND1       -8.4080    0.5500   12.0490 N.ar   93  HIS93      -0.2268
     17  CD2       -7.5970   -1.4640   12.2920 C.ar   93  HIS93       0.1154
     18  CE1       -7.8280    0.5030   13.2350 C.ar   93  HIS93       0.1986
     19  NE2       -7.3280   -0.7070   13.4050 N.ar   93  HIS93      -0.2212
     20  N         -7.9900   -6.5670   12.2540 N.3    95  HIS95      -0.1241
     21  CA        -6.7290   -7.2570   12.5040 C.3    95  HIS95       0.1621
     22  C         -7.1860   -8.7050   12.4070 C.2    95  HIS95       0.2264
     23  O         -8.2420   -9.0560   12.9370 O.2    95  HIS95      -0.2867
     24  CB        -6.1990   -6.9660   13.9060 C.3    95  HIS95       0.0745
     25  CG        -5.8280   -5.5360   14.1180 C.ar   95  HIS95       0.0817
     26  ND1       -4.5610   -5.0480   13.8750 N.ar   95  HIS95      -0.2268
     27  CD2       -6.5710   -4.4760   14.5110 C.ar   95  HIS95       0.1154
     28  CE1       -4.5410   -3.7490   14.1120 C.ar   95  HIS95       0.1986
     29  NE2       -5.7480   -3.3790   14.4970 N.ar   95  HIS95      -0.2212
     30  N        -11.9480   -2.6450   14.6660 N.3   118  HIS118     -0.1241
     31  CA       -11.6760   -1.4350   15.4300 C.3   118  HIS118      0.1621
     32  C        -12.3270   -0.2280   14.7790 C.2   118  HIS118      0.2264
     33  O        -11.9630    0.1560   13.6640 O.2   118  HIS118     -0.2867
     34  CB       -10.1710   -1.1890   15.5280 C.3   118  HIS118      0.0745
     35  CG        -9.4650   -2.1410   16.4420 C.ar  118  HIS118      0.0817
     36  ND1       -8.1000   -2.3250   16.4200 N.ar  118  HIS118     -0.2268
     37  CD2       -9.9390   -2.9630   17.4070 C.ar  118  HIS118      0.1154
     38  CE1       -7.7620   -3.2220   17.3270 C.ar  118  HIS118      0.1986
     39  NE2       -8.8600   -3.6260   17.9390 N.ar  118  HIS118     -0.2212
     40  N        -12.5740    3.5250   15.0500 N.3   120  VAL120     -0.1245
     41  CA       -11.8080    4.6220   15.6370 C.3   120  VAL120      0.1561
     42  C        -12.5480    5.9540   15.6850 C.2   120  VAL120      0.2260
     43  O        -13.0640    6.4170   14.6670 O.2   120  VAL120     -0.2867
     44  CB       -10.4950    4.8060   14.8470 C.3   120  VAL120      0.0252
     45  CG1       -9.6030    5.8280   15.5320 C.3   120  VAL120      0.0019
     46  CG2       -9.7880    3.4650   14.7060 C.3   120  VAL120      0.0019
     47  N         -8.5610   15.0160   14.6800 N.3   129  PHE129     -0.1241
     48  CA        -7.7660   13.8530   15.0310 C.3   129  PHE129      0.1605
     49  C         -6.3290   14.1570   15.4420 C.2   129  PHE129      0.2264
     50  O         -5.8390   13.6110   16.4310 O.2   129  PHE129     -0.2867
     51  CB        -7.7870   12.8540   13.8690 C.3   129  PHE129      0.0534
     52  CG        -7.0890   11.5590   14.1680 C.ar  129  PHE129     -0.0203
     53  CD1       -5.7180   11.4310   13.9800 C.ar  129  PHE129     -0.0042
     54  CD2       -7.8030   10.4730   14.6630 C.ar  129  PHE129     -0.0042
     55  CE1       -5.0670   10.2380   14.2810 C.ar  129  PHE129     -0.0003
     56  CE2       -7.1600    9.2760   14.9670 C.ar  129  PHE129     -0.0003
     57  CZ        -5.7910    9.1600   14.7750 C.ar  129  PHE129     -0.0000
     58  N         -4.7220   13.1290   19.2480 N.3   133  VAL133     -0.1245
     59  CA        -3.6830   12.1580   19.5780 C.3   133  VAL133      0.1561
     60  C         -2.5160   12.7530   20.3630 C.2   133  VAL133      0.2260
     61  O         -1.4200   12.1970   20.3950 O.2   133  VAL133     -0.2867
     62  CB        -3.1540   11.4390   18.3160 C.3   133  VAL133      0.0252
     63  CG1       -4.2850   10.6640   17.6600 C.3   133  VAL133      0.0019
     64  CG2       -2.5540   12.4380   17.3460 C.3   133  VAL133      0.0019
     65  N        -11.7210    3.7820   20.9060 N.3   141  VAL141     -0.1245
     66  CA       -11.8190    2.7550   19.8890 C.3   141  VAL141      0.1561
     67  C        -12.7780    1.6860   20.3770 C.2   141  VAL141      0.2260
     68  O        -12.6350    1.1560   21.4830 O.2   141  VAL141     -0.2867
     69  CB       -10.4500    2.1060   19.5720 C.3   141  VAL141      0.0252
     70  CG1      -10.6330    1.0440   18.4890 C.3   141  VAL141      0.0019
     71  CG2       -9.4590    3.1650   19.0880 C.3   141  VAL141      0.0019
     72  N         -2.7540    3.0010   20.9840 N.3   196  LEU196     -0.1231
     73  CA        -2.9120    2.5470   19.6170 C.3   196  LEU196      0.1693
     74  C         -2.1660    1.2130   19.6590 C.2   196  LEU196      0.2593
     75  O         -1.1740    1.0700   20.3880 O.2   196  LEU196     -0.2718
     76  CB        -2.2030    3.4900   18.6440 C.3   196  LEU196      0.0284
     77  CG        -2.6850    4.9400   18.5730 C.3   196  LEU196      0.0019
     78  CD1       -1.8600    5.6890   17.5270 C.3   196  LEU196      0.0001
     79  CD2       -4.1630    4.9880   18.2140 C.3   196  LEU196      0.0001
     80  N         -2.6200    0.2350   18.8900 N.am  197  THR197     -0.1939
     81  CA        -1.9640   -1.0670   18.9020 C.3   197  THR197      0.2028
     82  C         -0.9010   -1.2130   17.8190 C.2   197  THR197      0.2643
     83  O         -0.3160   -2.2840   17.6600 O.2   197  THR197     -0.2714
     84  CB        -2.9830   -2.1970   18.7500 C.3   197  THR197      0.1808
     85  OG1       -3.5910   -2.1070   17.4590 O.3   197  THR197     -0.2208
     86  CG2       -4.0480   -2.1070   19.8350 C.3   197  THR197      0.0379
     87  N         -0.6620   -0.1390   17.0710 N.am  198  THR198     -0.1937
     88  CA         0.3750   -0.1380   16.0410 C.3   198  THR198      0.2013
     89  C          1.1630    1.1420   16.2320 C.2   198  THR198      0.2484
     90  O          0.6740    2.0890   16.8510 O.2   198  THR198     -0.2729
     91  CB        -0.1860   -0.0800   14.5950 C.3   198  THR198      0.1807
     92  OG1       -0.6830    1.2400   14.3270 O.3   198  THR198     -0.2208
     93  CG2       -1.2970   -1.0910   14.4000 C.3   198  THR198      0.0379
     94  N          2.4080    1.1830   15.7390 N.am  199  PRO199     -0.2715
     95  CA         3.1780    2.4180   15.8930 C.3   199  PRO199      0.1521
     96  C          2.3020    3.5430   15.3350 C.2   199  PRO199      0.2440
     97  O          1.5770    3.3350   14.3580 O.2   199  PRO199     -0.2731
     98  CB         4.4030    2.1570   15.0310 C.3   199  PRO199      0.0310
     99  CG         4.6360    0.6870   15.2460 C.3   199  PRO199      0.0237
    100  CD         3.2320    0.1060   15.1610 C.3   199  PRO199      0.0939
    101  N          2.3920    4.7570   15.8990 N.am  200  PRO200     -0.2727
    102  CA         3.2500    5.1830   17.0100 C.3   200  PRO200      0.1402
    103  C          2.9000    4.7450   18.4370 C.2   200  PRO200      0.2269
    104  O          3.5150    5.2210   19.3860 O.2   200  PRO200     -0.2865
    105  CB         3.2680    6.6990   16.8550 C.3   200  PRO200      0.0296
    106  CG         1.8880    6.9890   16.3690 C.3   200  PRO200      0.0237
    107  CD         1.6430    5.9010   15.3440 C.3   200  PRO200      0.0939
    108  N          0.6360    5.5090   20.5100 N.3   202  LEU202     -0.1245
    109  CA         0.2790    6.6120   21.3990 C.3   202  LEU202      0.1561
    110  C         -0.7600    6.2190   22.4510 C.2   202  LEU202      0.2260
    111  O         -1.7560    5.5620   22.1520 O.2   202  LEU202     -0.2867
    112  CB        -0.2180    7.7970   20.5640 C.3   202  LEU202      0.0270
    113  CG         0.8050    8.2880   19.5290 C.3   202  LEU202      0.0019
    114  CD1        0.1740    9.3430   18.6380 C.3   202  LEU202      0.0001
    115  CD2        2.0330    8.8390   20.2430 C.3   202  LEU202      0.0001
    116  N        -10.3890    2.3540   25.5070 N.3   207  TRP207     -0.1241
    117  CA       -10.8410    1.1630   24.8120 C.3   207  TRP207      0.1605
    118  C        -12.1830    0.6870   25.3270 C.2   207  TRP207      0.2264
    119  O        -12.4150    0.6360   26.5340 O.2   207  TRP207     -0.2867
    120  CB        -9.8140    0.0380   24.9640 C.3   207  TRP207      0.0550
    121  CG        -8.6990    0.1410   23.9860 C.ar  207  TRP207      0.0003
    122  CD1       -7.4880    0.7600   24.1630 C.ar  207  TRP207      0.0946
    123  CD2       -8.7240   -0.3120   22.6290 C.ar  207  TRP207      0.0152
    124  NE1       -6.7640    0.7220   22.9940 N.ar  207  TRP207     -0.2442
    125  CE2       -7.5000    0.0700   22.0370 C.ar  207  TRP207      0.0810
    126  CE3       -9.6680   -1.0040   21.8540 C.ar  207  TRP207      0.0012
    127  CZ2       -7.1950   -0.2160   20.7020 C.ar  207  TRP207      0.0191
    128  CZ3       -9.3650   -1.2890   20.5290 C.ar  207  TRP207      0.0001
    129  CH2       -8.1400   -0.8950   19.9660 C.ar  207  TRP207      0.0015
@<TRIPOS>BOND
     1     5     2    1
     2     5     6    1
     3    14    11    1
     4    14    15    1
     5    11    10    1
     6    11    12    1
     7     2     3    1
     8     2     1    1
     9     6     7    1
    10     7     9   am
    11     7     8    2
    12    12    13    2
    13     3     4    2
    14    15    16   ar
    15    15    17   ar
    16    16    18   ar
    17    20    21    1
    18    17    19   ar
    19    22    21    1
    20    22    23    2
    21    21    24    1
    22    18    19   ar
    23    33    32    2
    24    51    52    1
    25    51    48    1
    26    26    28   ar
    27    26    25   ar
    28    24    25    1
    29    53    52   ar
    30    53    55   ar
    31    28    29   ar
    32    25    27   ar
    33    52    54   ar
    34    55    57   ar
    35    92    91    1
    36    97    96    2
    37    93    91    1
    38    29    27   ar
    39    91    88    1
    40    54    56   ar
    41    30    31    1
    42    43    42    2
    43    47    48    1
    44    46    44    1
    45    57    56   ar
    46    32    31    1
    47    44    45    1
    48    44    41    1
    49    48    49    1
    50    98    99    1
    51    98    95    1
    52    40    41    1
    53   100    99    1
    54   100    94    1
    55    96    95    1
    56    96   101   am
    57   107   101    1
    58   107   106    1
    59    31    34    1
    60    49    50    2
    61    34    35    1
    62    41    42    1
    63    94    95    1
    64    94    89   am
    65   101   102    1
    66    88    89    1
    67    88    87    1
    68    89    90    2
    69   106   105    1
    70    36    35   ar
    71    36    38   ar
    72    35    37   ar
    73   105   102    1
    74   102   103    1
    75    87    82   am
    76    38    39   ar
    77    64    62    1
    78    37    39   ar
    79    85    84    1
    80    78    77    1
    81    63    62    1
    82    83    82    2
    83    82    81    1
    84    79    77    1
    85    62    59    1
    86   103   104    2
    87    70    69    1
    88    77    76    1
    89   114   113    1
    90    76    73    1
    91    84    81    1
    92    84    86    1
    93    80    81    1
    94    80    74   am
    95    71    69    1
    96    58    59    1
    97   113   115    1
    98   113   112    1
    99    69    66    1
   100    59    60    1
   101    73    74    1
   102    73    72    1
   103    74    75    2
   104    66    67    1
   105    66    65    1
   106   129   128   ar
   107   129   127   ar
   108    60    61    2
   109    67    68    2
   110   108   109    1
   111   128   126   ar
   112   112   109    1
   113   127   125   ar
   114   109   110    1
   115   126   123   ar
   116   125   123   ar
   117   125   124   ar
   118   111   110    2
   119   123   121   ar
   120   124   122   ar
   121   121   122   ar
   122   121   120    1
   123   117   120    1
   124   117   118    1
   125   117   116    1
   126   118   119    2
