@<TRIPOS>MOLECULE
tmp/2qoaA01.pdb
 121 119 0 0 0
SMALL
GASTEIGER

@<TRIPOS>ATOM
      1  N        -12.8120    6.2110   11.1130 N.3    89  GLN89      -0.1245
      2  CA       -12.5100    5.0470   10.2820 C.3    89  GLN89       0.1566
      3  C        -12.6440    3.7650   11.0780 C.2    89  GLN89       0.2260
      4  O        -12.7260    3.7950   12.3020 O.2    89  GLN89      -0.2867
      5  CB       -11.0700    5.1340    9.7620 C.3    89  GLN89       0.0367
      6  CG       -10.0130    5.2260   10.8760 C.3    89  GLN89       0.0905
      7  CD        -9.1760    3.9630   11.0370 C.2    89  GLN89       0.2608
      8  OE1       -9.6980    2.8490   11.0480 O.2    89  GLN89      -0.2717
      9  NE2       -7.8670    4.1390   11.1780 N.am   89  GLN89      -0.0878
     10  N        -11.2830   -0.5770   10.8670 N.3    91  HIS91      -0.1241
     11  CA       -10.4110   -1.5330   10.2100 C.3    91  HIS91       0.1621
     12  C        -10.4340   -2.7980   11.0410 C.2    91  HIS91       0.2264
     13  O        -11.0670   -2.8400   12.0980 O.2    91  HIS91      -0.2867
     14  CB        -8.9810   -1.0030   10.1460 C.3    91  HIS91       0.0745
     15  CG        -8.4080   -0.6850   11.4870 C.ar   91  HIS91       0.0817
     16  ND1       -8.5980    0.5290   12.1100 N.ar   91  HIS91      -0.2268
     17  CD2       -7.7050   -1.4490   12.3550 C.ar   91  HIS91       0.1154
     18  CE1       -8.0370    0.5000   13.3050 C.ar   91  HIS91       0.1986
     19  NE2       -7.4880   -0.6890   13.4770 N.ar   91  HIS91      -0.2212
     20  N         -8.1110   -6.6100   12.2800 N.3    93  HIS93      -0.1241
     21  CA        -6.8490   -7.2900   12.5420 C.3    93  HIS93       0.1621
     22  C         -7.2890   -8.7410   12.4420 C.2    93  HIS93       0.2264
     23  O         -8.3360   -9.1060   12.9780 O.2    93  HIS93      -0.2867
     24  CB        -6.3410   -6.9920   13.9490 C.3    93  HIS93       0.0745
     25  CG        -5.9670   -5.5610   14.1540 C.ar   93  HIS93       0.0817
     26  ND1       -4.6990   -5.0810   13.9010 N.ar   93  HIS93      -0.2268
     27  CD2       -6.7060   -4.4920   14.5280 C.ar   93  HIS93       0.1154
     28  CE1       -4.6750   -3.7790   14.1110 C.ar   93  HIS93       0.1986
     29  NE2       -5.8800   -3.3960   14.4910 N.ar   93  HIS93      -0.2212
     30  N        -12.0390   -2.7140   14.6850 N.3   116  HIS116     -0.1241
     31  CA       -11.7710   -1.5060   15.4540 C.3   116  HIS116      0.1621
     32  C        -12.4140   -0.2930   14.8030 C.2   116  HIS116      0.2264
     33  O        -12.0400    0.0900   13.6940 O.2   116  HIS116     -0.2867
     34  CB       -10.2630   -1.2720   15.5740 C.3   116  HIS116      0.0745
     35  CG        -9.5830   -2.2210   16.5060 C.ar  116  HIS116      0.0817
     36  ND1       -8.2150   -2.3850   16.5380 N.ar  116  HIS116     -0.2268
     37  CD2      -10.0820   -3.0540   17.4490 C.ar  116  HIS116      0.1154
     38  CE1       -7.9010   -3.2780   17.4580 C.ar  116  HIS116      0.1986
     39  NE2       -9.0160   -3.6990   18.0260 N.ar  116  HIS116     -0.2212
     40  N        -12.6770    3.4640   15.0870 N.3   118  VAL118     -0.1245
     41  CA       -11.9180    4.5690   15.6760 C.3   118  VAL118      0.1561
     42  C        -12.6510    5.9080   15.7310 C.2   118  VAL118      0.2260
     43  O        -13.1690    6.3770   14.7190 O.2   118  VAL118     -0.2867
     44  CB       -10.6040    4.7620   14.8940 C.3   118  VAL118      0.0252
     45  CG1       -9.6840    5.7310   15.6270 C.3   118  VAL118      0.0019
     46  CG2       -9.9250    3.4130   14.6890 C.3   118  VAL118      0.0019
     47  N         -8.4460   14.9590   14.6970 N.3   127  PHE127     -0.1241
     48  CA        -7.7250   13.7590   15.0810 C.3   127  PHE127      0.1605
     49  C         -6.2910   14.0320   15.5200 C.2   127  PHE127      0.2264
     50  O         -5.8250   13.4680   16.5110 O.2   127  PHE127     -0.2867
     51  CB        -7.7410   12.7530   13.9270 C.3   127  PHE127      0.0534
     52  CG        -7.1150   11.4350   14.2660 C.ar  127  PHE127     -0.0203
     53  CD1       -5.7370   11.2600   14.1900 C.ar  127  PHE127     -0.0042
     54  CD2       -7.9030   10.3750   14.7050 C.ar  127  PHE127     -0.0042
     55  CE1       -5.1510   10.0480   14.5470 C.ar  127  PHE127     -0.0003
     56  CE2       -7.3260    9.1590   15.0650 C.ar  127  PHE127     -0.0003
     57  CZ        -5.9480    8.9980   14.9860 C.ar  127  PHE127     -0.0000
     58  N        -11.8680    3.7620   20.9780 N.3   139  VAL139     -0.1245
     59  CA       -11.9600    2.7350   19.9600 C.3   139  VAL139      0.1561
     60  C        -12.9060    1.6550   20.4380 C.2   139  VAL139      0.2260
     61  O        -12.7710    1.1360   21.5480 O.2   139  VAL139     -0.2867
     62  CB       -10.5910    2.1070   19.6400 C.3   139  VAL139      0.0252
     63  CG1      -10.7460    1.0810   18.5160 C.3   139  VAL139      0.0019
     64  CG2       -9.6090    3.1890   19.2180 C.3   139  VAL139      0.0019
     65  N         -2.8900    2.9790   21.0470 N.3   194  LEU194     -0.1231
     66  CA        -3.0380    2.5160   19.6790 C.3   194  LEU194      0.1693
     67  C         -2.2900    1.1800   19.7080 C.2   194  LEU194      0.2593
     68  O         -1.2830    1.0520   20.4140 O.2   194  LEU194     -0.2718
     69  CB        -2.3370    3.4710   18.7150 C.3   194  LEU194      0.0284
     70  CG        -2.8630    4.9010   18.6340 C.3   194  LEU194      0.0019
     71  CD1       -2.0210    5.6890   17.6320 C.3   194  LEU194      0.0001
     72  CD2       -4.3240    4.8840   18.2110 C.3   194  LEU194      0.0001
     73  N         -2.7580    0.1940   18.9490 N.am  195  THR195     -0.1939
     74  CA        -2.1050   -1.1160   18.9460 C.3   195  THR195      0.2028
     75  C         -1.0090   -1.2750   17.8940 C.2   195  THR195      0.2643
     76  O         -0.4220   -2.3520   17.7620 O.2   195  THR195     -0.2714
     77  CB        -3.1260   -2.2490   18.7630 C.3   195  THR195      0.1808
     78  OG1       -3.7210   -2.1450   17.4660 O.3   195  THR195     -0.2208
     79  CG2       -4.2130   -2.1690   19.8350 C.3   195  THR195      0.0379
     80  N         -0.7460   -0.2130   17.1380 N.am  196  THR196     -0.1937
     81  CA         0.3230   -0.2290   16.1420 C.3   196  THR196      0.2013
     82  C          1.0890    1.0670   16.3170 C.2   196  THR196      0.2484
     83  O          0.5890    2.0150   16.9280 O.2   196  THR196     -0.2729
     84  CB        -0.1930   -0.2290   14.6730 C.3   196  THR196      0.1807
     85  OG1       -0.6260    1.0930   14.3140 O.3   196  THR196     -0.2208
     86  CG2       -1.3380   -1.2080   14.4980 C.3   196  THR196      0.0379
     87  N          2.3280    1.1180   15.8140 N.am  197  PRO197     -0.2715
     88  CA         3.0790    2.3650   15.9500 C.3   197  PRO197      0.1521
     89  C          2.1790    3.4650   15.3820 C.2   197  PRO197      0.2440
     90  O          1.4520    3.2360   14.4110 O.2   197  PRO197     -0.2731
     91  CB         4.3120    2.1040   15.0980 C.3   197  PRO197      0.0310
     92  CG         4.5750    0.6530   15.3640 C.3   197  PRO197      0.0237
     93  CD         3.1820    0.0370   15.2890 C.3   197  PRO197      0.0939
     94  N          2.2580    4.6880   15.9270 N.am  198  PRO198     -0.2727
     95  CA         3.1000    5.1530   17.0340 C.3   198  PRO198      0.1402
     96  C          2.7620    4.7120   18.4630 C.2   198  PRO198      0.2269
     97  O          3.3720    5.2010   19.4110 O.2   198  PRO198     -0.2865
     98  CB         3.0580    6.6690   16.8620 C.3   198  PRO198      0.0296
     99  CG         1.6570    6.8940   16.3980 C.3   198  PRO198      0.0237
    100  CD         1.4730    5.8030   15.3650 C.3   198  PRO198      0.0939
    101  N         -6.0020    6.3550   24.0670 N.3   203  VAL203     -0.1245
    102  CA        -7.2520    5.6260   23.8490 C.3   203  VAL203      0.1561
    103  C         -8.0640    5.0470   25.0050 C.2   203  VAL203      0.2260
    104  O         -7.5270    4.4060   25.9050 O.2   203  VAL203     -0.2867
    105  CB        -7.0030    4.4430   22.8770 C.3   203  VAL203      0.0252
    106  CG1       -8.3170    3.7330   22.5520 C.3   203  VAL203      0.0019
    107  CG2       -6.3290    4.9440   21.6140 C.3   203  VAL203      0.0019
    108  N        -10.5050    2.2820   25.5560 N.3   205  TRP205     -0.1241
    109  CA       -10.9830    1.1000   24.8600 C.3   205  TRP205      0.1605
    110  C        -12.3160    0.6130   25.3890 C.2   205  TRP205      0.2264
    111  O        -12.5320    0.5310   26.5940 O.2   205  TRP205     -0.2867
    112  CB        -9.9610   -0.0410   24.9590 C.3   205  TRP205      0.0550
    113  CG        -8.8370    0.0890   23.9860 C.ar  205  TRP205      0.0003
    114  CD1       -7.6310    0.6970   24.1930 C.ar  205  TRP205      0.0946
    115  CD2       -8.8430   -0.3380   22.6190 C.ar  205  TRP205      0.0152
    116  NE1       -6.8870    0.6790   23.0360 N.ar  205  TRP205     -0.2442
    117  CE2       -7.6080    0.0490   22.0550 C.ar  205  TRP205      0.0810
    118  CE3       -9.7760   -1.0100   21.8140 C.ar  205  TRP205      0.0012
    119  CZ2       -7.2810   -0.2130   20.7210 C.ar  205  TRP205      0.0191
    120  CZ3       -9.4490   -1.2700   20.4890 C.ar  205  TRP205      0.0001
    121  CH2       -8.2110   -0.8710   19.9580 C.ar  205  TRP205      0.0015
@<TRIPOS>BOND
     1     5     2    1
     2     5     6    1
     3    14    11    1
     4    14    15    1
     5    11    10    1
     6    11    12    1
     7     2     3    1
     8     2     1    1
     9     6     7    1
    10     7     8    2
    11     7     9   am
    12    12    13    2
    13     3     4    2
    14    15    16   ar
    15    15    17   ar
    16    16    18   ar
    17    20    21    1
    18    17    19   ar
    19    22    21    1
    20    22    23    2
    21    21    24    1
    22    18    19   ar
    23    33    32    2
    24    26    28   ar
    25    26    25   ar
    26    51    52    1
    27    51    48    1
    28    24    25    1
    29    28    29   ar
    30    25    27   ar
    31    53    52   ar
    32    53    55   ar
    33    52    54   ar
    34    85    84    1
    35    90    89    2
    36    29    27   ar
    37    86    84    1
    38    55    57   ar
    39    84    81    1
    40    30    31    1
    41    46    44    1
    42    47    48    1
    43    54    56   ar
    44    43    42    2
    45    32    31    1
    46    44    45    1
    47    44    41    1
    48    57    56   ar
    49    48    49    1
    50    40    41    1
    51    91    92    1
    52    91    88    1
    53    93    92    1
    54    93    87    1
    55   100    94    1
    56   100    99    1
    57    89    94   am
    58    89    88    1
    59    31    34    1
    60    49    50    2
    61    34    35    1
    62    41    42    1
    63    87    88    1
    64    87    82   am
    65    94    95    1
    66    81    82    1
    67    81    80    1
    68    82    83    2
    69    99    98    1
    70    35    36   ar
    71    35    37   ar
    72    36    38   ar
    73    98    95    1
    74    95    96    1
    75    80    75   am
    76    37    39   ar
    77    38    39   ar
    78    78    77    1
    79    71    70    1
    80    76    75    2
    81    75    74    1
    82    72    70    1
    83    96    97    2
    84    63    62    1
    85    70    69    1
    86    69    66    1
    87    77    74    1
    88    77    79    1
    89    74    73    1
    90    73    67   am
    91    64    62    1
    92    62    59    1
    93    66    67    1
    94    66    65    1
    95    67    68    2
    96   121   120   ar
    97   121   119   ar
    98    59    60    1
    99    59    58    1
   100    60    61    2
   101   120   118   ar
   102   119   117   ar
   103   107   105    1
   104   118   115   ar
   105   117   115   ar
   106   117   116   ar
   107   106   105    1
   108   115   113   ar
   109   105   102    1
   110   116   114   ar
   111   102   101    1
   112   102   103    1
   113   113   114   ar
   114   113   112    1
   115   109   112    1
   116   109   110    1
   117   109   108    1
   118   103   104    2
   119   110   111    2
