@<TRIPOS>MOLECULE
tmp/2qocA00.pdb
 144 134 0 0 0
SMALL
GASTEIGER

@<TRIPOS>ATOM
      1  N        -15.0330   -0.0310   51.8950 N.3    15  VAL15      -0.1231
      2  CA       -13.6170   -0.4040   51.9790 C.3    15  VAL15       0.1692
      3  C        -12.9690    0.0020   53.3040 C.2    15  VAL15       0.2593
      4  O        -11.8760   -0.4660   53.6240 O.2    15  VAL15      -0.2718
      5  CB       -12.8060    0.1900   50.8040 C.3    15  VAL15       0.0266
      6  CG1      -13.3310   -0.3550   49.4880 C.3    15  VAL15       0.0020
      7  CG2      -12.8500    1.7140   50.8270 C.3    15  VAL15       0.0020
      8  N        -13.6350    0.8640   54.0680 N.am   16  GLY16      -0.1942
      9  CA       -13.1400    1.2810   55.3770 C.3    16  GLY16       0.2014
     10  C        -14.1280    2.1570   56.1210 C.2    16  GLY16       0.2639
     11  O        -15.2600    2.3470   55.6730 O.2    16  GLY16      -0.2714
     12  N        -13.6990    2.6910   57.2620 N.am   17  ALA17      -0.1963
     13  CA       -14.5510    3.5420   58.0850 C.3    17  ALA17       0.1728
     14  C        -13.7360    4.6340   58.7630 C.2    17  ALA17       0.2616
     15  O        -12.5920    4.4080   59.1630 O.2    17  ALA17      -0.2715
     16  CB       -15.2810    2.7090   59.1250 C.3    17  ALA17       0.0334
     17  N        -14.3400    5.8110   58.8930 N.am   18  GLY18      -0.1955
     18  CA       -13.7050    6.9600   59.5270 C.3    18  GLY18       0.1869
     19  C        -14.5390    7.5210   60.6600 C.2    18  GLY18       0.2309
     20  O        -15.5260    6.9140   61.0840 O.2    18  GLY18      -0.2863
     21  N        -16.3540    4.6660   54.3270 N.3    23  VAL23      -0.1245
     22  CA       -15.6210    4.9350   53.0820 C.3    23  VAL23       0.1561
     23  C        -15.8950    3.7970   52.1050 C.2    23  VAL23       0.2260
     24  O        -15.7150    2.6230   52.4460 O.2    23  VAL23      -0.2867
     25  CB       -14.0860    5.0000   53.3060 C.3    23  VAL23       0.0252
     26  CG1      -13.3570    5.3990   52.0110 C.3    23  VAL23       0.0019
     27  CG2      -13.7480    5.9610   54.4250 C.3    23  VAL23       0.0019
     28  N        -13.0760    7.1680   45.6730 N.3    39  ALA39      -0.1245
     29  CA       -13.4840    6.8810   47.0330 C.3    39  ALA39       0.1562
     30  C        -14.6200    7.8300   47.3830 C.2    39  ALA39       0.2260
     31  O        -14.6160    9.0040   46.9950 O.2    39  ALA39      -0.2867
     32  CB       -12.3090    7.0450   48.0000 C.3    39  ALA39       0.0290
     33  N        -16.8420    9.1260   50.6830 N.3    41  LYS41      -0.1245
     34  CA       -17.0250    9.2050   52.1260 C.3    41  LYS41       0.1561
     35  C        -18.3900    9.8170   52.3860 C.2    41  LYS41       0.2260
     36  O        -18.7390   10.8390   51.8010 O.2    41  LYS41      -0.2867
     37  CB       -15.9500   10.0760   52.7740 C.3    41  LYS41       0.0271
     38  CG       -14.5650    9.4400   52.8370 C.3    41  LYS41       0.0035
     39  CD       -13.6300   10.2360   53.7520 C.3    41  LYS41       0.0206
     40  CE       -13.8860    9.9450   55.2310 C.3    41  LYS41       0.1093
     41  NZ       -12.8390   10.5150   56.1410 N.3    41  LYS41      -0.1314
     42  N         -4.0540   14.3720   47.6050 N.3    71  ILE71      -0.1245
     43  CA        -5.2970   13.6940   47.2180 C.3    71  ILE71       0.1561
     44  C         -6.2470   14.6700   46.5380 C.2    71  ILE71       0.2260
     45  O         -6.5080   15.7680   47.0440 O.2    71  ILE71      -0.2867
     46  CB        -5.9970   13.0130   48.4150 C.3    71  ILE71       0.0252
     47  CG1       -5.2170   11.7640   48.8380 C.3    71  ILE71       0.0019
     48  CG2       -7.4440   12.6110   48.0580 C.3    71  ILE71       0.0019
     49  CD1       -5.2750   10.6180   47.8120 C.3    71  ILE71       0.0001
     50  N        -13.3470   11.5700   46.3230 N.3    87  THR87      -0.1203
     51  CA       -11.9180   11.7720   46.0520 C.3    87  THR87       0.1994
     52  C        -11.4020   10.7270   45.0680 C.2    87  THR87       0.2618
     53  O        -12.0530    9.7100   44.8300 O.2    87  THR87      -0.2717
     54  CB       -11.0850   11.6960   47.3530 C.3    87  THR87       0.1784
     55  OG1      -11.3650   10.4590   48.0210 O.3    87  THR87      -0.2211
     56  CG2      -11.4000   12.8570   48.2740 C.3    87  THR87       0.0376
     57  N        -10.2160   10.9510   44.5070 N.am   88  GLU88      -0.1965
     58  CA        -9.5950    9.9370   43.6560 C.3    88  GLU88       0.1733
     59  C         -9.3800    8.6510   44.4650 C.2    88  GLU88       0.2616
     60  O         -9.0500    8.6880   45.6550 O.2    88  GLU88      -0.2715
     61  CB        -8.2650   10.4340   43.0830 C.3    88  GLU88       0.0429
     62  CG        -7.1700   10.6510   44.1380 C.3    88  GLU88       0.1163
     63  CD        -5.8700   11.1750   43.5440 C.2    88  GLU88       0.3649
     64  OE1       -5.3630   10.5680   42.5830 O.co2  88  GLU88      -0.2457
     65  OE2       -5.3440   12.1750   44.0510 O.co2  88  GLU88      -0.2457
     66  N         -9.5610    7.5180   43.8020 N.am   89  TYR89      -0.1960
     67  CA        -9.3970    6.2160   44.4380 C.3    89  TYR89       0.1771
     68  C         -7.9140    5.8260   44.5350 C.2    89  TYR89       0.2619
     69  O         -7.1760    5.9400   43.5760 O.2    89  TYR89      -0.2715
     70  CB       -10.1660    5.1440   43.6660 C.3    89  TYR89       0.0574
     71  CG       -10.2080    3.8020   44.3680 C.ar   89  TYR89      -0.0198
     72  CD1      -10.8120    3.6710   45.6060 C.ar   89  TYR89      -0.0009
     73  CD2       -9.6470    2.6700   43.7860 C.ar   89  TYR89      -0.0009
     74  CE1      -10.8420    2.4440   46.2610 C.ar   89  TYR89       0.0417
     75  CE2       -9.6840    1.4330   44.4370 C.ar   89  TYR89       0.0417
     76  CZ       -10.2790    1.3420   45.6580 C.ar   89  TYR89       0.1957
     77  OH       -10.3090    0.1120   46.2880 O.3    89  TYR89      -0.2866
     78  N         -7.5070    5.3490   45.7060 N.am   90  MET90      -0.1977
     79  CA        -6.1140    4.9640   45.9930 C.3    90  MET90       0.1605
     80  C         -6.1310    3.4900   46.3820 C.2    90  MET90       0.2287
     81  O         -6.3900    3.1400   47.5360 O.2    90  MET90      -0.2864
     82  CB        -5.5560    5.8390   47.1110 C.3    90  MET90       0.0413
     83  CG        -5.6190    7.3360   46.7880 C.3    90  MET90       0.0598
     84  SD        -4.5160    7.8620   45.4300 S.3    90  MET90      -0.1393
     85  CE        -2.9230    7.8460   46.2590 C.3    90  MET90       0.0692
     86  N         -4.5030    1.8500   49.5850 N.3    93  GLY93      -0.1210
     87  CA        -4.9040    2.3080   50.9080 C.3    93  GLY93       0.1956
     88  C         -3.8620    3.1750   51.5930 C.2    93  GLY93       0.2612
     89  O         -3.1110    3.9250   50.9470 O.2    93  GLY93      -0.2717
     90  N         -3.8300    3.0830   52.9140 N.am   94  SER94      -0.1952
     91  CA        -2.9520    3.9170   53.7160 C.3    94  SER94       0.1924
     92  C         -1.5410    3.3380   53.6990 C.2    94  SER94       0.2314
     93  O         -1.3620    2.1220   53.7420 O.2    94  SER94      -0.2863
     94  CB        -3.4940    4.0330   55.1300 C.3    94  SER94       0.2116
     95  OG        -4.8060    4.5690   55.0910 O.3    94  SER94      -0.2180
     96  N          1.1190    3.2510   55.7580 N.3    96  ASP96      -0.1225
     97  CA         1.6720    2.4440   56.8480 C.3    96  ASP96       0.1805
     98  C          1.1350    1.0070   56.8120 C.2    96  ASP96       0.2598
     99  O          1.9120    0.0590   56.9400 O.2    96  ASP96      -0.2718
    100  CB         1.4820    3.1070   58.2240 C.3    96  ASP96       0.1424
    101  CG         0.0420    3.2140   58.6530 C.2    96  ASP96       0.3668
    102  OD1       -0.8600    3.4190   57.8260 O.co2  96  ASP96      -0.2456
    103  OD2       -0.2000    3.1050   59.8740 O.co2  96  ASP96      -0.2456
    104  N         -0.1690    0.8360   56.6260 N.am   97  SER97      -0.1952
    105  CA        -0.7370   -0.5120   56.5960 C.3    97  SER97       0.1924
    106  C         -0.3230   -1.2720   55.3300 C.2    97  SER97       0.2314
    107  O         -0.1860   -2.4990   55.3630 O.2    97  SER97      -0.2863
    108  CB        -2.2550   -0.4650   56.7340 C.3    97  SER97       0.2116
    109  OG        -2.8370    0.1320   55.6000 O.3    97  SER97      -0.2180
    110  N          0.2060    7.0630   58.1470 N.3   138  ARG138     -0.1231
    111  CA        -1.2190    6.7050   58.1470 C.3   138  ARG138      0.1694
    112  C         -2.1100    7.7520   57.4700 C.2   138  ARG138      0.2592
    113  O         -3.3060    7.5070   57.2680 O.2   138  ARG138     -0.2718
    114  CB        -1.7070    6.4710   59.5730 C.3   138  ARG138      0.0321
    115  CG        -1.7310    7.7270   60.4170 C.3   138  ARG138      0.0489
    116  CD        -1.9920    7.4590   61.8920 C.3   138  ARG138      0.2205
    117  NE        -1.2020    8.3920   62.6900 N.pl3 138  ARG138     -0.0865
    118  CZ        -1.4630    9.6890   62.8400 C.cat 138  ARG138      0.5346
    119  NH1       -0.6360   10.4350   63.5680 N.pl3 138  ARG138      0.1354
    120  NH2       -2.5390   10.2430   62.2940 N.pl3 138  ARG138      0.1354
    121  N         -1.5390    8.9220   57.1720 N.am  139  ASN139     -0.1974
    122  CA        -2.2360    9.9900   56.4440 C.3   139  ASN139      0.1688
    123  C         -1.7170   10.1790   55.0380 C.2   139  ASN139      0.2292
    124  O         -2.0040   11.1960   54.4050 O.2   139  ASN139     -0.2864
    125  CB        -2.1440   11.2940   57.2200 C.3   139  ASN139      0.1181
    126  CG        -3.0110   11.2750   58.4460 C.2   139  ASN139      0.2629
    127  OD1       -4.0100   10.5600   58.4940 O.2   139  ASN139     -0.2716
    128  ND2       -2.6370   12.0450   59.4430 N.am  139  ASN139     -0.0877
    129  N         -1.9000    8.2340   51.3640 N.3   141  LEU141     -0.1245
    130  CA        -2.5590    7.1800   50.5980 C.3   141  LEU141      0.1561
    131  C         -1.6590    6.7900   49.4270 C.2   141  LEU141      0.2260
    132  O         -0.8760    7.6070   48.9220 O.2   141  LEU141     -0.2867
    133  CB        -3.9440    7.6280   50.1240 C.3   141  LEU141      0.0270
    134  CG        -4.9970    7.7930   51.2240 C.3   141  LEU141      0.0019
    135  CD1       -6.1780    8.6230   50.7270 C.3   141  LEU141      0.0001
    136  CD2       -5.4870    6.4180   51.7060 C.3   141  LEU141      0.0001
    137  N         -5.7940   13.7320   54.5580 N.3   152  ASP152     -0.1239
    138  CA        -6.2440   14.0320   55.9080 C.3   152  ASP152      0.1674
    139  C         -5.8830   15.4120   56.4020 C.2   152  ASP152      0.2266
    140  O         -4.9130   15.6080   57.1370 O.2   152  ASP152     -0.2867
    141  CB        -5.8290   12.9650   56.9160 C.3   152  ASP152      0.1410
    142  CG        -6.6200   13.0700   58.2030 C.2   152  ASP152      0.3668
    143  OD1       -7.2950   14.1130   58.4060 O.co2 152  ASP152     -0.2456
    144  OD2       -6.5650   12.1300   59.0100 O.co2 152  ASP152     -0.2456
@<TRIPOS>BOND
     1    64    63   ar
     2    61    58    1
     3    61    62    1
     4    63    65   ar
     5    63    62    1
     6    69    68    2
     7    58    59    1
     8    58    57    1
     9    70    71    1
    10    70    67    1
    11    73    71   ar
    12    73    75   ar
    13    66    67    1
    14    66    59   am
    15    71    72   ar
    16    75    76   ar
    17    67    68    1
    18    59    60    2
    19    57    52   am
    20    68    78   am
    21    53    52    2
    22    52    51    1
    23    84    85    1
    24    84    83    1
    25    72    74   ar
    26    76    74   ar
    27    76    77    1
    28    28    29    1
    29    78    79    1
    30    79    80    1
    31    79    82    1
    32    51    50    1
    33    51    54    1
    34    80    81    2
    35    44    45    2
    36    44    43    1
    37    83    82    1
    38    31    30    2
    39    29    30    1
    40    29    32    1
    41    43    42    1
    42    43    46    1
    43    54    55    1
    44    54    56    1
    45    49    47    1
    46    48    46    1
    47    46    47    1
    48   132   131    2
    49   131   130    1
    50     6     5    1
    51    86    87    1
    52   133   130    1
    53   133   134    1
    54   130   129    1
    55    33    34    1
    56   135   134    1
    57     5     7    1
    58     5     2    1
    59    87    88    1
    60    89    88    2
    61   134   136    1
    62    88    90   am
    63    36    35    2
    64     1     2    1
    65     2     3    1
    66    26    25    1
    67    23    24    2
    68    23    22    1
    69    34    35    1
    70    34    37    1
    71    37    38    1
    72    38    39    1
    73    90    91    1
    74    22    25    1
    75    22    21    1
    76     3     4    2
    77     3     8   am
    78    25    27    1
    79    92    91    1
    80    92    93    2
    81    91    94    1
    82    39    40    1
    83     8     9    1
    84   124   123    2
    85   137   138    1
    86   123   122    1
    87    95    94    1
    88    40    41    1
    89   106   107    2
    90   106   105    1
    91     9    10    1
    92   109   108    1
    93    11    10    2
    94    96    97    1
    95   138   139    1
    96   138   141    1
    97    10    12   am
    98   139   140    2
    99   122   121    1
   100   122   125    1
   101   105   104    1
   102   105   108    1
   103   104    98   am
   104    98    97    1
   105    98    99    2
   106    97   100    1
   107   141   142    1
   108   121   112   am
   109   125   126    1
   110    12    13    1
   111   113   112    2
   112   112   111    1
   113   102   101   ar
   114    13    14    1
   115    13    16    1
   116   111   110    1
   117   111   114    1
   118   142   143   ar
   119   142   144   ar
   120   100   101    1
   121   126   127    2
   122   126   128   am
   123   101   103   ar
   124    14    17   am
   125    14    15    2
   126    17    18    1
   127    18    19    1
   128   114   115    1
   129   115   116    1
   130    19    20    2
   131   116   117    1
   132   120   118    1
   133   117   118    2
   134   118   119    1
