@<TRIPOS>MOLECULE
tmp/2qohB00.pdb
 196 186 0 0 0
SMALL
GASTEIGER

@<TRIPOS>ATOM
      1  N        -28.0980   18.6070   26.9670 N.3    19  HIS19      -0.1241
      2  CA       -27.2150   17.4480   26.8050 C.3    19  HIS19       0.1621
      3  C        -27.9770   16.3440   26.0640 C.2    19  HIS19       0.2264
      4  O        -29.2160   16.3780   25.9930 O.2    19  HIS19      -0.2867
      5  CB       -26.8110   16.9100   28.1840 C.3    19  HIS19       0.0745
      6  CG       -27.9490   16.2910   28.9410 C.ar   19  HIS19       0.0817
      7  ND1      -29.0500   17.0110   29.3570 N.ar   19  HIS19      -0.2268
      8  CD2      -28.1830   15.0090   29.3120 C.ar   19  HIS19       0.1154
      9  CE1      -29.9130   16.2010   29.9480 C.ar   19  HIS19       0.1986
     10  NE2      -29.4100   14.9790   29.9330 N.ar   19  HIS19      -0.2212
     11  N        -29.9650   13.1780   25.2750 N.3    21  LEU21      -0.1231
     12  CA       -30.8970   12.4770   26.1320 C.3    21  LEU21       0.1693
     13  C        -30.8220   10.9710   25.9350 C.2    21  LEU21       0.2593
     14  O        -30.1500   10.5010   25.0190 O.2    21  LEU21      -0.2718
     15  CB       -32.3230   12.9810   25.9120 C.3    21  LEU21       0.0284
     16  CG       -33.0560   12.8280   24.5840 C.3    21  LEU21       0.0019
     17  CD1      -33.3050   11.3480   24.2810 C.3    21  LEU21       0.0001
     18  CD2      -34.3690   13.5710   24.6930 C.3    21  LEU21       0.0001
     19  N        -31.5060   10.2270   26.8040 N.am   22  GLY22      -0.1942
     20  CA       -31.5300    8.7760   26.7010 C.3    22  GLY22       0.2014
     21  C        -30.1540    8.1450   26.7480 C.2    22  GLY22       0.2639
     22  O        -29.9340    7.0730   26.1910 O.2    22  GLY22      -0.2714
     23  N        -29.2170    8.8090   27.4130 N.am   23  GLY23      -0.1954
     24  CA       -27.8720    8.2760   27.5030 C.3    23  GLY23       0.1869
     25  C        -27.1920    8.1720   26.1490 C.2    23  GLY23       0.2309
     26  O        -26.1610    7.5140   26.0190 O.2    23  GLY23      -0.2863
     27  N        -28.4900    6.7810   23.4820 N.3    25  GLN25      -0.1231
     28  CA       -28.9760    5.6350   22.7260 C.3    25  GLN25       0.1698
     29  C        -29.6830    6.0510   21.4230 C.2    25  GLN25       0.2592
     30  O        -29.7580    5.2630   20.4860 O.2    25  GLN25      -0.2718
     31  CB       -29.9030    4.7680   23.6050 C.3    25  GLN25       0.0381
     32  CG       -31.1320    5.4830   24.1580 C.3    25  GLN25       0.0905
     33  CD       -31.9840    4.6060   25.0950 C.2    25  GLN25       0.2608
     34  OE1      -32.6560    3.6660   24.6600 O.2    25  GLN25      -0.2717
     35  NE2      -31.9570    4.9220   26.3870 N.am   25  GLN25      -0.0878
     36  N        -30.1540    7.2980   21.3530 N.am   26  TYR26      -0.1976
     37  CA       -30.8540    7.8000   20.1730 C.3    26  TYR26       0.1639
     38  C        -30.0290    8.6290   19.2010 C.2    26  TYR26       0.2290
     39  O        -30.5720    9.2650   18.3020 O.2    26  TYR26      -0.2864
     40  CB       -32.0570    8.6230   20.6080 C.3    26  TYR26       0.0560
     41  CG       -33.0030    7.8090   21.4190 C.ar   26  TYR26      -0.0198
     42  CD1      -33.7240    6.7820   20.8410 C.ar   26  TYR26      -0.0009
     43  CD2      -33.1330    8.0180   22.7790 C.ar   26  TYR26      -0.0009
     44  CE1      -34.5420    5.9880   21.5930 C.ar   26  TYR26       0.0417
     45  CE2      -33.9500    7.2230   23.5370 C.ar   26  TYR26       0.0417
     46  CZ       -34.6510    6.2100   22.9340 C.ar   26  TYR26       0.1957
     47  OH       -35.4660    5.4120   23.6890 O.3    26  TYR26      -0.2866
     48  N        -29.8030   13.3020   19.7380 N.3    29  VAL29      -0.1245
     49  CA       -31.0670   13.7810   20.2470 C.3    29  VAL29       0.1561
     50  C        -30.8000   14.3040   21.6390 C.2    29  VAL29       0.2260
     51  O        -30.3220   13.5770   22.5100 O.2    29  VAL29      -0.2867
     52  CB       -32.1190   12.6820   20.2880 C.3    29  VAL29       0.0252
     53  CG1      -33.3960   13.2180   20.9350 C.3    29  VAL29       0.0019
     54  CG2      -32.4270   12.2060   18.8530 C.3    29  VAL29       0.0019
     55  N        -31.8480   16.8060   25.2140 N.3    31  GLU31      -0.1245
     56  CA       -32.8640   17.3430   26.0900 C.3    31  GLU31       0.1567
     57  C        -32.5120   18.8300   25.9460 C.2    31  GLU31       0.2260
     58  O        -31.3290   19.2160   26.0000 O.2    31  GLU31      -0.2867
     59  CB       -32.6990   16.9150   27.5500 C.3    31  GLU31       0.0388
     60  CG       -33.9280   17.3740   28.4000 C.3    31  GLU31       0.1160
     61  CD       -33.7870   17.1150   29.8950 C.2    31  GLU31       0.3649
     62  OE1      -33.1820   16.0860   30.2630 O.co2  31  GLU31      -0.2457
     63  OE2      -34.3020   17.9290   30.7050 O.co2  31  GLU31      -0.2457
     64  N        -37.2950   18.0400   23.2650 N.3    42  ALA42      -0.1245
     65  CA       -36.3310   17.0680   22.7540 C.3    42  ALA42       0.1562
     66  C        -35.9470   17.6530   21.4150 C.2    42  ALA42       0.2260
     67  O        -36.8190   18.0630   20.6300 O.2    42  ALA42      -0.2867
     68  CB       -36.9780   15.6870   22.5700 C.3    42  ALA42       0.0290
     69  N        -33.6780   16.9290   18.0010 N.3    44  LYS44      -0.1245
     70  CA       -32.8740   16.0500   17.1640 C.3    44  LYS44       0.1561
     71  C        -32.1730   16.9440   16.1800 C.2    44  LYS44       0.2260
     72  O        -32.8130   17.8250   15.5930 O.2    44  LYS44      -0.2867
     73  CB       -33.7320   15.0290   16.4030 C.3    44  LYS44       0.0271
     74  CG       -32.9250   14.2370   15.3730 C.3    44  LYS44       0.0035
     75  CD       -33.7290   13.1030   14.7510 C.3    44  LYS44       0.0206
     76  CE       -32.9080   12.3500   13.7100 C.3    44  LYS44       0.1093
     77  NZ       -33.6000   11.1320   13.2130 N.3    44  LYS44      -0.1314
     78  N        -37.6680   13.7030    7.2730 N.3    56  GLU56      -0.1245
     79  CA       -38.2450   13.3990    8.5620 C.3    56  GLU56       0.1567
     80  C        -39.0680   14.5680    9.0790 C.2    56  GLU56       0.2260
     81  O        -40.1660   14.3860    9.5860 O.2    56  GLU56      -0.2867
     82  CB       -37.1600   13.0510    9.5860 C.3    56  GLU56       0.0388
     83  CG       -37.7460   12.7800   10.9520 C.3    56  GLU56       0.1160
     84  CD       -36.7250   12.2610   11.9450 C.2    56  GLU56       0.3649
     85  OE1      -35.5470   12.0750   11.5630 O.co2  56  GLU56      -0.2457
     86  OE2      -37.1200   12.0360   13.1100 O.co2  56  GLU56      -0.2457
     87  N        -45.5240   11.4160   19.2760 N.3    69  VAL69      -0.1245
     88  CA       -44.8520   12.5430   19.9250 C.3    69  VAL69       0.1561
     89  C        -45.0740   13.8240   19.1010 C.2    69  VAL69       0.2260
     90  O        -44.9300   13.8200   17.8850 O.2    69  VAL69      -0.2867
     91  CB       -43.3350   12.2520   20.1480 C.3    69  VAL69       0.0252
     92  CG1      -42.5660   12.4050   18.8790 C.3    69  VAL69       0.0019
     93  CG2      -42.7840   13.1750   21.2480 C.3    69  VAL69       0.0019
     94  N        -39.4240   18.5160   19.4740 N.3    85  THR85      -0.1203
     95  CA       -40.6590   17.8700   19.8900 C.3    85  THR85       0.1994
     96  C        -40.8560   18.0210   21.3820 C.2    85  THR85       0.2618
     97  O        -39.9380   18.4510   22.0930 O.2    85  THR85      -0.2717
     98  CB       -40.6260   16.3700   19.5610 C.3    85  THR85       0.1784
     99  OG1      -39.6290   15.7280   20.3650 O.3    85  THR85      -0.2211
    100  CG2      -40.2810   16.1620   18.0820 C.3    85  THR85       0.0376
    101  N        -42.0610   17.7020   21.8510 N.am   86  GLU86      -0.1965
    102  CA       -42.3510   17.7600   23.2630 C.3    86  GLU86       0.1733
    103  C        -41.4040   16.7520   23.9090 C.2    86  GLU86       0.2616
    104  O        -40.9610   15.7960   23.2550 O.2    86  GLU86      -0.2715
    105  CB       -43.7870   17.3200   23.5380 C.3    86  GLU86       0.0429
    106  CG       -44.0810   15.9020   23.0340 C.3    86  GLU86       0.1163
    107  CD       -45.5300   15.4640   23.2710 C.2    86  GLU86       0.3649
    108  OE1      -46.0860   14.7620   22.4050 O.co2  86  GLU86      -0.2457
    109  OE2      -46.1200   15.8090   24.3140 O.co2  86  GLU86      -0.2457
    110  N        -41.0960   16.9570   25.1850 N.am   87  PHE87      -0.1960
    111  CA       -40.2170   16.0520   25.9210 C.3    87  PHE87       0.1771
    112  C        -41.0900   15.1290   26.7790 C.2    87  PHE87       0.2619
    113  O        -41.9240   15.6110   27.5360 O.2    87  PHE87      -0.2715
    114  CB       -39.2810   16.8580   26.8320 C.3    87  PHE87       0.0574
    115  CG       -38.3320   16.0160   27.6120 C.ar   87  PHE87      -0.0200
    116  CD1      -37.1570   15.5600   27.0390 C.ar   87  PHE87      -0.0042
    117  CD2      -38.6190   15.6630   28.9200 C.ar   87  PHE87      -0.0042
    118  CE1      -36.2780   14.7630   27.7700 C.ar   87  PHE87      -0.0003
    119  CE2      -37.7470   14.8720   29.6480 C.ar   87  PHE87      -0.0003
    120  CZ       -36.5750   14.4210   29.0690 C.ar   87  PHE87      -0.0000
    121  N        -40.9150   13.8150   26.6620 N.am   88  MET88      -0.1963
    122  CA       -41.7040   12.8770   27.4620 C.3    88  MET88       0.1736
    123  C        -40.8770   12.5860   28.7220 C.2    88  MET88       0.2617
    124  O        -39.8020   12.0010   28.6570 O.2    88  MET88      -0.2715
    125  CB       -41.9860   11.6100   26.6590 C.3    88  MET88       0.0427
    126  CG       -42.7840   11.8590   25.3550 C.3    88  MET88       0.0599
    127  SD       -44.4040   12.5850   25.6290 S.3    88  MET88      -0.1393
    128  CE       -45.2300   11.3250   26.4970 C.3    88  MET88       0.0692
    129  N        -41.3950   13.0080   29.8690 N.am   89  THR89      -0.1937
    130  CA       -40.6570   12.9030   31.1270 C.3    89  THR89       0.2028
    131  C        -40.2810   11.5430   31.6830 C.2    89  THR89       0.2642
    132  O        -39.2600   11.4250   32.3630 O.2    89  THR89      -0.2714
    133  CB       -41.3610   13.7300   32.2320 C.3    89  THR89       0.1808
    134  OG1      -42.7680   13.4370   32.2430 O.3    89  THR89      -0.2208
    135  CG2      -41.1700   15.2270   31.9570 C.3    89  THR89       0.0379
    136  N        -41.0720   10.5130   31.4110 N.am   90  TYR90      -0.1959
    137  CA       -40.7080    9.2030   31.9240 C.3    90  TYR90       0.1771
    138  C        -39.8520    8.3700   30.9790 C.2    90  TYR90       0.2620
    139  O        -39.6940    7.1810   31.1920 O.2    90  TYR90      -0.2715
    140  CB       -41.9440    8.4130   32.3550 C.3    90  TYR90       0.0574
    141  CG       -42.6040    8.9970   33.5860 C.ar   90  TYR90      -0.0198
    142  CD1      -43.5900    9.9730   33.4780 C.ar   90  TYR90      -0.0009
    143  CD2      -42.2100    8.6010   34.8630 C.ar   90  TYR90      -0.0009
    144  CE1      -44.1630   10.5360   34.6080 C.ar   90  TYR90       0.0417
    145  CE2      -42.7790    9.1620   35.9970 C.ar   90  TYR90       0.0417
    146  CZ       -43.7520   10.1280   35.8610 C.ar   90  TYR90       0.1957
    147  OH       -44.3090   10.6880   36.9840 O.3    90  TYR90      -0.2866
    148  N        -39.2830    8.9990   29.9530 N.am   91  GLY91      -0.1940
    149  CA       -38.4110    8.2830   29.0280 C.3    91  GLY91       0.2014
    150  C        -39.0390    7.2600   28.0870 C.2    91  GLY91       0.2638
    151  O        -40.2230    7.3640   27.7360 O.2    91  GLY91      -0.2714
    152  N        -38.2460    6.2700   27.6720 N.am   92  ASN92      -0.1972
    153  CA       -38.7520    5.2480   26.7670 C.3    92  ASN92       0.1688
    154  C        -39.4210    4.0830   27.4850 C.2    92  ASN92       0.2292
    155  O        -39.1500    3.8030   28.6540 O.2    92  ASN92      -0.2864
    156  CB       -37.6470    4.7590   25.8250 C.3    92  ASN92       0.1181
    157  CG       -36.5660    3.9640   26.5280 C.2    92  ASN92       0.2629
    158  OD1      -36.7560    2.8030   26.8760 O.2    92  ASN92      -0.2716
    159  ND2      -35.4060    4.5920   26.7200 N.am   92  ASN92      -0.0877
    160  N        -37.1160    0.9690   28.8730 N.3    95  ASP95      -0.1239
    161  CA       -36.5120    1.2020   30.1880 C.3    95  ASP95       0.1674
    162  C        -37.5970    1.3110   31.2490 C.2    95  ASP95       0.2266
    163  O        -37.4640    0.7880   32.3620 O.2    95  ASP95      -0.2867
    164  CB       -35.6540    2.4680   30.1710 C.3    95  ASP95       0.1410
    165  CG       -34.4170    2.3170   29.2920 C.2    95  ASP95       0.3668
    166  OD1      -33.9330    1.1710   29.1520 O.co2  95  ASP95      -0.2456
    167  OD2      -33.9240    3.3310   28.7440 O.co2  95  ASP95      -0.2456
    168  N        -38.5980    2.7470   21.1620 N.3   138  ASN138     -0.1240
    169  CA       -39.0260    3.9300   20.4320 C.3   138  ASN138      0.1653
    170  C        -40.3700    4.4680   20.8470 C.2   138  ASN138      0.2266
    171  O        -40.9220    5.3500   20.1960 O.2   138  ASN138     -0.2867
    172  CB       -39.0000    3.6410   18.9430 C.3   138  ASN138      0.1155
    173  CG       -37.5950    3.6130   18.4040 C.2   138  ASN138      0.2627
    174  OD1      -37.3140    3.0810   17.3220 O.2   138  ASN138     -0.2716
    175  ND2      -36.6900    4.1990   19.1630 N.am  138  ASN138     -0.0877
    176  N        -42.5410    6.2400   24.0150 N.3   140  LEU140     -0.1245
    177  CA       -42.2300    7.0860   25.1570 C.3   140  LEU140      0.1561
    178  C        -43.3660    7.1250   26.1560 C.2   140  LEU140      0.2260
    179  O        -44.5310    6.8840   25.7990 O.2   140  LEU140     -0.2867
    180  CB       -41.8970    8.4960   24.6650 C.3   140  LEU140      0.0270
    181  CG       -40.7210    8.5430   23.6910 C.3   140  LEU140      0.0019
    182  CD1      -40.7100    9.8810   22.9710 C.3   140  LEU140      0.0001
    183  CD2      -39.4090    8.2860   24.4300 C.3   140  LEU140      0.0001
    184  N        -42.6410    7.2820   18.8140 N.3   150  ALA150     -0.1231
    185  CA       -41.6760    8.3130   18.4400 C.3   150  ALA150      0.1694
    186  C        -40.6170    7.7430   17.5150 C.2   150  ALA150      0.2592
    187  O        -40.6970    6.5860   17.1220 O.2   150  ALA150     -0.2718
    188  CB       -41.0360    8.9060   19.6940 C.3   150  ALA150      0.0304
    189  N        -39.6210    8.5670   17.1910 N.am  151  ASP151     -0.1974
    190  CA       -38.5220    8.2160   16.2860 C.3   151  ASP151      0.1709
    191  C        -39.0150    7.8880   14.8980 C.2   151  ASP151      0.2293
    192  O        -39.1570    6.7220   14.5460 O.2   151  ASP151     -0.2864
    193  CB       -37.7100    7.0270   16.7990 C.3   151  ASP151      0.1436
    194  CG       -36.4620    6.7900   15.9700 C.2   151  ASP151      0.3671
    195  OD1      -36.1430    7.6400   15.1190 O.co2 151  ASP151     -0.2456
    196  OD2      -35.7920    5.7580   16.1690 O.co2 151  ASP151     -0.2456
@<TRIPOS>BOND
     1    78    79    1
     2    79    80    1
     3    79    82    1
     4    80    81    2
     5    82    83    1
     6    83    84    1
     7    85    84   ar
     8    84    86   ar
     9    77    76    1
    10    76    75    1
    11   192   191    2
    12    75    74    1
    13   191   190    1
    14   195   194   ar
    15    74    73    1
    16    72    71    2
    17   194   196   ar
    18   194   193    1
    19    71    70    1
    20   190   193    1
    21   190   189    1
    22    73    70    1
    23   187   186    2
    24    70    69    1
    25   189   186   am
    26   174   173    2
    27   186   185    1
    28    90    89    2
    29   100    98    1
    30    39    38    2
    31   173   172    1
    32   173   175   am
    33   185   184    1
    34   185   188    1
    35    54    52    1
    36    92    91    1
    37   172   169    1
    38    89    88    1
    39    38    37    1
    40    87    88    1
    41    94    95    1
    42    98    95    1
    43    98    99    1
    44    48    49    1
    45    95    96    1
    46    88    91    1
    47    91    93    1
    48    37    40    1
    49    37    36    1
    50   171   170    2
    51    49    52    1
    52    49    50    1
    53    52    53    1
    54   169   170    1
    55   169   168    1
    56    30    29    2
    57    40    41    1
    58    67    66    2
    59    42    41   ar
    60    42    44   ar
    61    36    29   am
    62    96   101   am
    63    96    97    2
    64    66    65    1
    65    41    43   ar
    66    29    28    1
    67    44    46   ar
    68    50    51    2
    69   101   102    1
    70   108   107   ar
    71    68    65    1
    72    28    27    1
    73    28    31    1
    74    65    64    1
    75    43    45   ar
    76    46    45   ar
    77    46    47    1
    78   182   181    1
    79   106   107    1
    80   106   105    1
    81   104   103    2
    82   102   105    1
    83   102   103    1
    84   107   109   ar
    85    31    32    1
    86   181   183    1
    87   181   180    1
    88   103   110   am
    89   176   177    1
    90    32    33    1
    91    17    16    1
    92    16    18    1
    93    16    15    1
    94    34    33    2
    95   180   177    1
    96    14    13    2
    97    33    35   am
    98   177   178    1
    99   110   111    1
   100    55    56    1
   101    11    12    1
   102   126   127    1
   103   126   125    1
   104   127   128    1
   105   179   178    2
   106   156   157    1
   107   156   153    1
   108    15    12    1
   109   111   112    1
   110   111   114    1
   111    13    12    1
   112    13    19   am
   113    57    58    2
   114    57    56    1
   115     4     3    2
   116    26    25    2
   117     3     2    1
   118    56    59    1
   119    25    24    1
   120    22    21    2
   121   157   159   am
   122   157   158    2
   123   125   122    1
   124   121   112   am
   125   121   122    1
   126    20    21    1
   127    20    19    1
   128    21    23   am
   129   153   154    1
   130   153   152    1
   131   112   113    2
   132     2     1    1
   133     2     5    1
   134   114   115    1
   135   116   115   ar
   136   116   118   ar
   137    23    24    1
   138   122   123    1
   139   154   155    2
   140    59    60    1
   141   115   117   ar
   142   152   150   am
   143   151   150    2
   144   118   120   ar
   145   150   149    1
   146     5     6    1
   147    60    61    1
   148   124   123    2
   149   123   129   am
   150   167   165   ar
   151   160   161    1
   152   117   119   ar
   153     6     8   ar
   154     6     7   ar
   155   149   148    1
   156   120   119   ar
   157   166   165   ar
   158   165   164    1
   159     8    10   ar
   160     7     9   ar
   161   129   130    1
   162    61    62   ar
   163    61    63   ar
   164    10     9   ar
   165   148   138   am
   166   164   161    1
   167   161   162    1
   168   138   139    2
   169   138   137    1
   170   130   131    1
   171   130   133    1
   172   162   163    2
   173   136   131   am
   174   136   137    1
   175   131   132    2
   176   137   140    1
   177   135   133    1
   178   133   134    1
   179   140   141    1
   180   142   141   ar
   181   142   144   ar
   182   141   143   ar
   183   144   146   ar
   184   143   145   ar
   185   146   145   ar
   186   146   147    1
