@<TRIPOS>MOLECULE
tmp/2qorA01.pdb
 118 112 0 0 0
SMALL
GASTEIGER

@<TRIPOS>ATOM
      1  N          3.4970   11.0840  183.1630 N.3    12  SER12      -0.1202
      2  CA         3.1090   10.3000  182.0120 C.3    12  SER12       0.2020
      3  C          2.6040   11.2580  180.9350 C.2    12  SER12       0.2619
      4  O          1.8180   12.1660  181.2330 O.2    12  SER12      -0.2717
      5  CB         2.0070    9.3070  182.4180 C.3    12  SER12       0.2103
      6  OG         1.5130    8.6030  181.2960 O.3    12  SER12      -0.2182
      7  N          3.0340   11.0340  179.6950 N.am   13  GLY13      -0.1942
      8  CA         2.5880   11.8360  178.5520 C.3    13  GLY13       0.2014
      9  C          3.5510   12.9760  178.2370 C.2    13  GLY13       0.2639
     10  O          3.3200   13.7430  177.3100 O.2    13  GLY13      -0.2714
     11  N          4.6360   13.0870  178.9920 N.am   14  VAL14      -0.1963
     12  CA         5.5950   14.1920  178.7720 C.3    14  VAL14       0.1727
     13  C          6.6630   13.9350  177.7250 C.2    14  VAL14       0.2617
     14  O          7.3740   14.8700  177.3340 O.2    14  VAL14      -0.2715
     15  CB         6.2680   14.6120  180.1010 C.3    14  VAL14       0.0290
     16  CG1        7.4460   13.6810  180.4810 C.3    14  VAL14       0.0023
     17  CG2        6.6710   16.0560  180.0470 C.3    14  VAL14       0.0023
     18  N          6.7850   12.7010  177.2610 N.am   15  GLY15      -0.1940
     19  CA         7.7730   12.3280  176.2370 C.3    15  GLY15       0.2014
     20  C          9.1570   11.9890  176.7590 C.2    15  GLY15       0.2639
     21  O         10.1280   12.0100  176.0080 O.2    15  GLY15      -0.2714
     22  N          9.2750   11.6430  178.0320 N.am   16  LYS16      -0.1963
     23  CA        10.5880   11.3340  178.5850 C.3    16  LYS16       0.1728
     24  C         11.1740   10.0130  178.0120 C.2    16  LYS16       0.2617
     25  O         12.3890    9.8820  177.8600 O.2    16  LYS16      -0.2715
     26  CB        10.5510   11.3450  180.1260 C.3    16  LYS16       0.0311
     27  CG         9.8810   10.1850  180.7310 C.3    16  LYS16       0.0038
     28  CD         9.4120   10.4340  182.1730 C.3    16  LYS16       0.0206
     29  CE         8.4000    9.3850  182.5500 C.3    16  LYS16       0.1093
     30  NZ         7.0100    9.7530  182.0630 N.3    16  LYS16      -0.1314
     31  N         10.3160    9.0700  177.6460 N.am   17  GLY17      -0.1940
     32  CA        10.7650    7.8310  177.0170 C.3    17  GLY17       0.2014
     33  C         11.4860    8.1090  175.7030 C.2    17  GLY17       0.2639
     34  O         12.5780    7.5880  175.4510 O.2    17  GLY17      -0.2714
     35  N         10.9050    8.9610  174.8790 N.am   18  THR18      -0.1950
     36  CA        11.5380    9.3210  173.6120 C.3    18  THR18       0.1897
     37  C         12.8660   10.0460  173.8330 C.2    18  THR18       0.2313
     38  O         13.8440    9.7670  173.1370 O.2    18  THR18      -0.2863
     39  CB        10.6220   10.1590  172.7790 C.3    18  THR18       0.1794
     40  OG1        9.3890    9.4440  172.6270 O.3    18  THR18      -0.2208
     41  CG2       11.2290   10.4090  171.4220 C.3    18  THR18       0.0378
     42  N          2.2320   -3.9060  185.2060 N.3    40  ARG40      -0.1245
     43  CA         1.2380   -3.4280  184.2430 C.3    40  ARG40       0.1563
     44  C          1.3240   -4.2600  182.9650 C.2    40  ARG40       0.2260
     45  O          2.3400   -4.8890  182.7110 O.2    40  ARG40      -0.2867
     46  CB         1.3700   -1.9280  183.9720 C.3    40  ARG40       0.0307
     47  CG         2.4880   -1.5100  183.0710 C.3    40  ARG40       0.0489
     48  CD         2.0110   -0.3330  182.2260 C.3    40  ARG40       0.2205
     49  NE         3.1040    0.3640  181.5650 N.pl3  40  ARG40      -0.0865
     50  CZ         3.6560    0.0090  180.4180 C.cat  40  ARG40       0.5346
     51  NH1        3.2880   -1.0990  179.7690 N.pl3  40  ARG40       0.1354
     52  NH2        4.6050    0.7780  179.9240 N.pl3  40  ARG40       0.1354
     53  N         10.7420   -3.1850  179.8850 N.3    52  TYR52      -0.1241
     54  CA        10.4970   -3.6360  181.2530 C.3    52  TYR52       0.1605
     55  C         10.6620   -5.1460  181.2600 C.2    52  TYR52       0.2264
     56  O         10.6500   -5.7780  180.1950 O.2    52  TYR52      -0.2867
     57  CB         9.0470   -3.3550  181.6900 C.3    52  TYR52       0.0534
     58  CG         8.7240   -1.9020  181.9570 C.ar   52  TYR52      -0.0201
     59  CD1        8.0040   -1.1400  181.0410 C.ar   52  TYR52      -0.0009
     60  CD2        9.0960   -1.3020  183.1480 C.ar   52  TYR52      -0.0009
     61  CE1        7.7200    0.1890  181.2960 C.ar   52  TYR52       0.0417
     62  CE2        8.8060    0.0330  183.4200 C.ar   52  TYR52       0.0417
     63  CZ         8.1170    0.7710  182.4810 C.ar   52  TYR52       0.1957
     64  OH         7.8010    2.0890  182.7390 O.3    52  TYR52      -0.2866
     65  N          2.2050    2.7900  191.0720 N.3    75  TYR75      -0.1241
     66  CA         1.8540    3.9450  190.2330 C.3    75  TYR75       0.1605
     67  C          0.6430    3.5060  189.4220 C.2    75  TYR75       0.2264
     68  O          0.6860    2.4860  188.7470 O.2    75  TYR75      -0.2867
     69  CB         3.0400    4.3070  189.3440 C.3    75  TYR75       0.0534
     70  CG         2.7250    5.3960  188.3240 C.ar   75  TYR75      -0.0201
     71  CD1        3.0170    6.7290  188.5860 C.ar   75  TYR75      -0.0009
     72  CD2        2.0960    5.0780  187.1240 C.ar   75  TYR75      -0.0009
     73  CE1        2.7180    7.7250  187.6520 C.ar   75  TYR75       0.0417
     74  CE2        1.7700    6.0520  186.1980 C.ar   75  TYR75       0.0417
     75  CZ         2.0860    7.3700  186.4560 C.ar   75  TYR75       0.1957
     76  OH         1.7400    8.3240  185.5240 O.3    75  TYR75      -0.2866
     77  N         14.7750    5.3560  184.6170 N.3   100  GLU100     -0.1245
     78  CA        13.5690    6.1480  184.4730 C.3   100  GLU100      0.1567
     79  C         12.6290    5.6740  185.5560 C.2   100  GLU100      0.2260
     80  O         12.3240    4.4970  185.6090 O.2   100  GLU100     -0.2867
     81  CB        12.9090    5.9540  183.1260 C.3   100  GLU100      0.0388
     82  CG        11.6860    6.8480  182.9580 C.3   100  GLU100      0.1160
     83  CD        10.6530    6.3060  182.0080 C.2   100  GLU100      0.3649
     84  OE1       10.8050    6.4790  180.7820 O.co2 100  GLU100     -0.2457
     85  OE2        9.6550    5.7390  182.5080 O.co2 100  GLU100     -0.2457
     86  N         -2.2270   15.0930  175.1170 N.3   133  ARG133     -0.1245
     87  CA        -1.3910   13.9720  174.7040 C.3   133  ARG133      0.1563
     88  C         -1.8710   12.6560  175.3140 C.2   133  ARG133      0.2260
     89  O         -1.9510   11.6680  174.6250 O.2   133  ARG133     -0.2867
     90  CB         0.0640   14.2150  175.0460 C.3   133  ARG133      0.0307
     91  CG         0.6780   15.3290  174.2190 C.3   133  ARG133      0.0489
     92  CD         2.2060   15.2530  174.2140 C.3   133  ARG133      0.2205
     93  NE         2.6780   14.3310  173.1810 N.pl3 133  ARG133     -0.0865
     94  CZ         3.3070   13.1700  173.3860 C.cat 133  ARG133      0.5346
     95  NH1        3.5850   12.7420  174.6000 N.pl3 133  ARG133      0.1354
     96  NH2        3.6660   12.4230  172.3460 N.pl3 133  ARG133      0.1354
     97  N         -3.9180    8.8640  173.4130 N.3   137  ARG137     -0.1245
     98  CA        -3.7220    7.4240  173.5580 C.3   137  ARG137      0.1563
     99  C         -5.0910    6.7370  173.3870 C.2   137  ARG137      0.2260
    100  O         -5.8450    6.5700  174.3390 O.2   137  ARG137     -0.2867
    101  CB        -3.0830    7.1040  174.9130 C.3   137  ARG137      0.0307
    102  CG        -1.7380    7.8090  175.1060 C.3   137  ARG137      0.0489
    103  CD        -1.1110    7.5170  176.4600 C.3   137  ARG137      0.2205
    104  NE         0.2580    8.0230  176.5140 N.pl3 137  ARG137     -0.0865
    105  CZ         1.0950    7.8360  177.5280 C.cat 137  ARG137      0.5346
    106  NH1        0.7240    7.1500  178.5980 N.pl3 137  ARG137      0.1354
    107  NH2        2.3210    8.3360  177.4500 N.pl3 137  ARG137      0.1354
    108  N         -3.3400    8.1880  185.8210 N.3   148  ARG148     -0.1245
    109  CA        -2.1790    8.9230  185.3430 C.3   148  ARG148      0.1563
    110  C         -2.2850   10.4350  185.5160 C.2   148  ARG148      0.2260
    111  O         -1.2710   11.1250  185.7930 O.2   148  ARG148     -0.2867
    112  CB        -1.9010    8.5410  183.8900 C.3   148  ARG148      0.0307
    113  CG        -1.3600    7.1350  183.7710 C.3   148  ARG148      0.0489
    114  CD        -1.2930    6.6390  182.3370 C.3   148  ARG148      0.2205
    115  NE        -0.8190    5.2540  182.3130 N.pl3 148  ARG148     -0.0865
    116  CZ         0.4490    4.8530  182.3300 C.cat 148  ARG148      0.5346
    117  NH1        1.4550    5.7240  182.3590 N.pl3 148  ARG148      0.1354
    118  NH2        0.7260    3.5580  182.3230 N.pl3 148  ARG148      0.1354
@<TRIPOS>BOND
     1    41    39    1
     2    96    94    1
     3    40    39    1
     4    39    36    1
     5    38    37    2
     6    93    94    2
     7    93    92    1
     8    94    95    1
     9    99    98    1
    10    99   100    2
    11    97    98    1
    12    98   101    1
    13    36    37    1
    14    36    35    1
    15    92    91    1
    16    91    90    1
    17    89    88    2
    18    87    90    1
    19    87    86    1
    20    87    88    1
    21    35    33   am
    22   101   102    1
    23   102   103    1
    24    34    33    2
    25    33    32    1
    26    21    20    2
    27    19    20    1
    28    19    18    1
    29   103   104    1
    30   104   105    2
    31    20    22   am
    32    32    31    1
    33    18    13   am
    34    10     9    2
    35    14    13    2
    36   107   105    1
    37   105   106    1
    38    31    24   am
    39    13    12    1
    40    25    24    2
    41    24    23    1
    42    22    23    1
    43     9     8    1
    44     9    11   am
    45     8     7    1
    46    23    26    1
    47    12    11    1
    48    12    15    1
    49     7     3   am
    50    51    50    1
    51    53    54    1
    52    52    50    1
    53    17    15    1
    54    15    16    1
    55    26    27    1
    56    56    55    2
    57    50    49    2
    58    27    28    1
    59    84    83   ar
    60     3     4    2
    61     3     2    1
    62    59    61   ar
    63    59    58   ar
    64    54    55    1
    65    54    57    1
    66    61    63   ar
    67     6     5    1
    68    49    48    1
    69    57    58    1
    70    58    60   ar
    71    83    85   ar
    72    83    82    1
    73     2     5    1
    74     2     1    1
    75    30    29    1
    76    28    29    1
    77    48    47    1
    78   115   116    2
    79   115   114    1
    80   118   116    1
    81   116   117    1
    82   114   113    1
    83    63    64    1
    84    63    62   ar
    85    45    44    2
    86    82    81    1
    87    44    43    1
    88    47    46    1
    89    81    78    1
    90    60    62   ar
    91   113   112    1
    92   112   109    1
    93    46    43    1
    94    43    42    1
    95    78    77    1
    96    78    79    1
    97   109   110    1
    98   109   108    1
    99   110   111    2
   100    76    75    1
   101    79    80    2
   102    74    75   ar
   103    74    72   ar
   104    75    73   ar
   105    72    70   ar
   106    73    71   ar
   107    70    71   ar
   108    70    69    1
   109    68    67    2
   110    69    66    1
   111    67    66    1
   112    66    65    1
