@<TRIPOS>MOLECULE
tmp/2qorA00.pdb
 165 152 0 0 0
SMALL
GASTEIGER

@<TRIPOS>ATOM
      1  N         15.8880    9.9740  185.1850 N.3     8  VAL8       -0.1231
      2  CA        14.9160   10.7700  184.4470 C.3     8  VAL8        0.1692
      3  C         13.5130   10.5370  184.9850 C.2     8  VAL8        0.2592
      4  O         13.0850    9.3960  185.1390 O.2     8  VAL8       -0.2718
      5  CB        15.0160   10.5090  182.9250 C.3     8  VAL8        0.0266
      6  CG1       13.9550   11.3380  182.1620 C.3     8  VAL8        0.0020
      7  CG2       16.4420   10.8280  182.4170 C.3     8  VAL8        0.0020
      8  N         12.8180   11.6340  185.2860 N.am    9  CYS9       -0.1956
      9  CA        11.5040   11.5920  185.9440 C.3     9  CYS9        0.1843
     10  C         10.5970   12.6030  185.2540 C.2     9  CYS9        0.2626
     11  O         11.0470   13.6110  184.7320 O.2     9  CYS9       -0.2714
     12  CB        11.6860   11.9660  187.4190 C.3     9  CYS9        0.0997
     13  SG        10.2360   11.8600  188.4270 S.3     9  CYS9       -0.0797
     14  N          9.3140   12.3120  185.2430 N.am   10  GLY10      -0.1954
     15  CA         8.3240   13.2670  184.7840 C.3    10  GLY10       0.1869
     16  C          6.9890   12.5980  184.6220 C.2    10  GLY10       0.2309
     17  O          6.8940   11.3780  184.6650 O.2    10  GLY10      -0.2863
     18  N          3.4970   11.0840  183.1630 N.3    12  SER12      -0.1217
     19  CA         3.1090   10.3000  182.0120 C.3    12  SER12       0.1889
     20  C          2.6040   11.2580  180.9350 C.2    12  SER12       0.2288
     21  O          1.8180   12.1660  181.2330 O.2    12  SER12      -0.2866
     22  CB         2.0070    9.3070  182.4180 C.3    12  SER12       0.2089
     23  OG         1.5130    8.6030  181.2960 O.3    12  SER12      -0.2183
     24  N          9.2750   11.6430  178.0320 N.3    16  LYS16      -0.1245
     25  CA        10.5880   11.3340  178.5850 C.3    16  LYS16       0.1561
     26  C         11.1740   10.0130  178.0120 C.2    16  LYS16       0.2260
     27  O         12.3890    9.8820  177.8600 O.2    16  LYS16      -0.2867
     28  CB        10.5510   11.3450  180.1260 C.3    16  LYS16       0.0271
     29  CG         9.8810   10.1850  180.7310 C.3    16  LYS16       0.0035
     30  CD         9.4120   10.4340  182.1730 C.3    16  LYS16       0.0206
     31  CE         8.4000    9.3850  182.5500 C.3    16  LYS16       0.1093
     32  NZ         7.0100    9.7530  182.0630 N.3    16  LYS16      -0.1314
     33  N         13.3090   -1.9460  184.4260 N.3    36  SER36      -0.1217
     34  CA        12.5020   -2.0850  185.6230 C.3    36  SER36       0.1889
     35  C         11.5860   -3.2860  185.4950 C.2    36  SER36       0.2288
     36  O         11.2990   -3.7670  184.3880 O.2    36  SER36      -0.2866
     37  CB        11.6500   -0.8190  185.8430 C.3    36  SER36       0.2089
     38  OG        12.4540    0.3180  186.1310 O.3    36  SER36      -0.2183
     39  N          2.2320   -3.9060  185.2060 N.3    40  ARG40      -0.1245
     40  CA         1.2380   -3.4280  184.2430 C.3    40  ARG40       0.1563
     41  C          1.3240   -4.2600  182.9650 C.2    40  ARG40       0.2260
     42  O          2.3400   -4.8890  182.7110 O.2    40  ARG40      -0.2867
     43  CB         1.3700   -1.9280  183.9720 C.3    40  ARG40       0.0307
     44  CG         2.4880   -1.5100  183.0710 C.3    40  ARG40       0.0489
     45  CD         2.0110   -0.3330  182.2260 C.3    40  ARG40       0.2205
     46  NE         3.1040    0.3640  181.5650 N.pl3  40  ARG40      -0.0865
     47  CZ         3.6560    0.0090  180.4180 C.cat  40  ARG40       0.5346
     48  NH1        3.2880   -1.0990  179.7690 N.pl3  40  ARG40       0.1354
     49  NH2        4.6050    0.7780  179.9240 N.pl3  40  ARG40       0.1354
     50  N         10.7420   -3.1850  179.8850 N.3    52  TYR52      -0.1241
     51  CA        10.4970   -3.6360  181.2530 C.3    52  TYR52       0.1605
     52  C         10.6620   -5.1460  181.2600 C.2    52  TYR52       0.2264
     53  O         10.6500   -5.7780  180.1950 O.2    52  TYR52      -0.2867
     54  CB         9.0470   -3.3550  181.6900 C.3    52  TYR52       0.0534
     55  CG         8.7240   -1.9020  181.9570 C.ar   52  TYR52      -0.0201
     56  CD1        8.0040   -1.1400  181.0410 C.ar   52  TYR52      -0.0009
     57  CD2        9.0960   -1.3020  183.1480 C.ar   52  TYR52      -0.0009
     58  CE1        7.7200    0.1890  181.2960 C.ar   52  TYR52       0.0417
     59  CE2        8.8060    0.0330  183.4200 C.ar   52  TYR52       0.0417
     60  CZ         8.1170    0.7710  182.4810 C.ar   52  TYR52       0.1957
     61  OH         7.8010    2.0890  182.7390 O.3    52  TYR52      -0.2866
     62  N         14.4420    0.0470  194.8890 N.3    71  GLU71      -0.1245
     63  CA        13.2870    0.8660  195.2030 C.3    71  GLU71       0.1567
     64  C         12.0950    0.2860  194.4740 C.2    71  GLU71       0.2260
     65  O         12.2540   -0.4420  193.4930 O.2    71  GLU71      -0.2867
     66  CB        13.5090    2.3230  194.7870 C.3    71  GLU71       0.0388
     67  CG        13.7140    2.5470  193.2780 C.3    71  GLU71       0.1160
     68  CD        12.4300    2.4310  192.4700 C.2    71  GLU71       0.3649
     69  OE1       12.4850    1.9230  191.3170 O.co2  71  GLU71      -0.2457
     70  OE2       11.3630    2.8430  192.9740 O.co2  71  GLU71      -0.2457
     71  N          7.5550    1.2340  193.7700 N.3    73  ASP73      -0.1239
     72  CA         6.3820    2.0510  194.0710 C.3    73  ASP73       0.1674
     73  C          5.1760    1.4640  193.3780 C.2    73  ASP73       0.2266
     74  O          5.3160    0.6120  192.4890 O.2    73  ASP73      -0.2867
     75  CB         6.6150    3.5080  193.6390 C.3    73  ASP73       0.1410
     76  CG         5.6320    4.4930  194.3010 C.2    73  ASP73       0.3668
     77  OD1        5.1910    4.2360  195.4230 O.co2  73  ASP73      -0.2456
     78  OD2        5.3150    5.5240  193.6940 O.co2  73  ASP73      -0.2456
     79  N          2.2050    2.7900  191.0720 N.3    75  TYR75      -0.1241
     80  CA         1.8540    3.9450  190.2330 C.3    75  TYR75       0.1605
     81  C          0.6430    3.5060  189.4220 C.2    75  TYR75       0.2264
     82  O          0.6860    2.4860  188.7470 O.2    75  TYR75      -0.2867
     83  CB         3.0400    4.3070  189.3440 C.3    75  TYR75       0.0534
     84  CG         2.7250    5.3960  188.3240 C.ar   75  TYR75      -0.0201
     85  CD1        3.0170    6.7290  188.5860 C.ar   75  TYR75      -0.0009
     86  CD2        2.0960    5.0780  187.1240 C.ar   75  TYR75      -0.0009
     87  CE1        2.7180    7.7250  187.6520 C.ar   75  TYR75       0.0417
     88  CE2        1.7700    6.0520  186.1980 C.ar   75  TYR75       0.0417
     89  CZ         2.0860    7.3700  186.4560 C.ar   75  TYR75       0.1957
     90  OH         1.7400    8.3240  185.5240 O.3    75  TYR75      -0.2866
     91  N          6.0110   -1.0020  190.2090 N.3    80  TYR80      -0.1227
     92  CA         7.1990   -0.7820  189.4220 C.3    80  TYR80       0.1736
     93  C          8.3810   -0.8390  190.3420 C.2    80  TYR80       0.2596
     94  O          8.2910   -0.3900  191.4790 O.2    80  TYR80      -0.2718
     95  CB         7.1610    0.6070  188.7990 C.3    80  TYR80       0.0548
     96  CG         6.0440    0.8350  187.8170 C.ar   80  TYR80      -0.0200
     97  CD1        6.2840    0.8330  186.4520 C.ar   80  TYR80      -0.0009
     98  CD2        4.7400    1.0740  188.2480 C.ar   80  TYR80      -0.0009
     99  CE1        5.2370    1.0580  185.5420 C.ar   80  TYR80       0.0417
    100  CE2        3.6950    1.2930  187.3430 C.ar   80  TYR80       0.0417
    101  CZ         3.9550    1.2750  186.0000 C.ar   80  TYR80       0.1957
    102  OH         2.9080    1.5110  185.1280 O.3    80  TYR80      -0.2866
    103  N          9.5040   -1.3680  189.8560 N.am   81  GLY81      -0.1942
    104  CA        10.6670   -1.5410  190.7250 C.3    81  GLY81       0.2014
    105  C         11.9840   -1.6540  189.9840 C.2    81  GLY81       0.2639
    106  O         12.0380   -2.2110  188.8870 O.2    81  GLY81      -0.2714
    107  N         13.0350   -1.0870  190.5870 N.am   82  THR82      -0.1950
    108  CA        14.3750   -1.0640  190.0240 C.3    82  THR82       0.1897
    109  C         15.1750   -2.1810  190.6390 C.2    82  THR82       0.2313
    110  O         15.2870   -2.2900  191.8790 O.2    82  THR82      -0.2863
    111  CB        15.1050    0.2690  190.3250 C.3    82  THR82       0.1794
    112  OG1       14.4490    1.3610  189.6470 O.3    82  THR82      -0.2208
    113  CG2       16.5450    0.1970  189.8900 C.3    82  THR82       0.0378
    114  N         14.7750    5.3560  184.6170 N.3   100  GLU100     -0.1245
    115  CA        13.5690    6.1480  184.4730 C.3   100  GLU100      0.1567
    116  C         12.6290    5.6740  185.5560 C.2   100  GLU100      0.2260
    117  O         12.3240    4.4970  185.6090 O.2   100  GLU100     -0.2867
    118  CB        12.9090    5.9540  183.1260 C.3   100  GLU100      0.0388
    119  CG        11.6860    6.8480  182.9580 C.3   100  GLU100      0.1160
    120  CD        10.6530    6.3060  182.0080 C.2   100  GLU100      0.3649
    121  OE1       10.8050    6.4790  180.7820 O.co2 100  GLU100     -0.2457
    122  OE2        9.6550    5.7390  182.5080 O.co2 100  GLU100     -0.2457
    123  N          9.4840    7.2180  188.7270 N.3   101  ASN101     -0.1240
    124  CA         8.6020    8.2770  189.2070 C.3   101  ASN101      0.1653
    125  C          9.1860    8.9660  190.4300 C.2   101  ASN101      0.2266
    126  O         10.2520    8.6150  190.9390 O.2   101  ASN101     -0.2867
    127  CB         7.1770    7.7180  189.4810 C.3   101  ASN101      0.1155
    128  CG         7.1020    6.8650  190.7380 C.2   101  ASN101      0.2627
    129  OD1        8.1140    6.5680  191.3610 O.2   101  ASN101     -0.2716
    130  ND2        5.8840    6.4960  191.1370 N.am  101  ASN101     -0.0877
    131  N         10.1480    6.9260  193.5140 N.3   104  GLY104     -0.1225
    132  CA        11.3910    6.1960  193.2420 C.3   104  GLY104      0.1811
    133  C         12.5950    7.1040  193.3830 C.2   104  GLY104      0.2280
    134  O         13.6040    6.7210  193.9880 O.2   104  GLY104     -0.2866
    135  N         -3.9180    8.8640  173.4130 N.3   137  ARG137     -0.1245
    136  CA        -3.7220    7.4240  173.5580 C.3   137  ARG137      0.1563
    137  C         -5.0910    6.7370  173.3870 C.2   137  ARG137      0.2260
    138  O         -5.8450    6.5700  174.3390 O.2   137  ARG137     -0.2867
    139  CB        -3.0830    7.1040  174.9130 C.3   137  ARG137      0.0307
    140  CG        -1.7380    7.8090  175.1060 C.3   137  ARG137      0.0489
    141  CD        -1.1110    7.5170  176.4600 C.3   137  ARG137      0.2205
    142  NE         0.2580    8.0230  176.5140 N.pl3 137  ARG137     -0.0865
    143  CZ         1.0950    7.8360  177.5280 C.cat 137  ARG137      0.5346
    144  NH1        0.7240    7.1500  178.5980 N.pl3 137  ARG137      0.1354
    145  NH2        2.3210    8.3360  177.4500 N.pl3 137  ARG137      0.1354
    146  N         -3.3400    8.1880  185.8210 N.3   148  ARG148     -0.1245
    147  CA        -2.1790    8.9230  185.3430 C.3   148  ARG148      0.1563
    148  C         -2.2850   10.4350  185.5160 C.2   148  ARG148      0.2260
    149  O         -1.2710   11.1250  185.7930 O.2   148  ARG148     -0.2867
    150  CB        -1.9010    8.5410  183.8900 C.3   148  ARG148      0.0307
    151  CG        -1.3600    7.1350  183.7710 C.3   148  ARG148      0.0489
    152  CD        -1.2930    6.6390  182.3370 C.3   148  ARG148      0.2205
    153  NE        -0.8190    5.2540  182.3130 N.pl3 148  ARG148     -0.0865
    154  CZ         0.4490    4.8530  182.3300 C.cat 148  ARG148      0.5346
    155  NH1        1.4550    5.7240  182.3590 N.pl3 148  ARG148      0.1354
    156  NH2        0.7260    3.5580  182.3230 N.pl3 148  ARG148      0.1354
    157  N          2.7330   14.8290  191.1940 N.3   154  GLU154     -0.1245
    158  CA         4.0830   14.9900  190.6420 C.3   154  GLU154      0.1567
    159  C          4.4320   16.4460  190.4080 C.2   154  GLU154      0.2260
    160  O          5.5170   16.8920  190.7910 O.2   154  GLU154     -0.2867
    161  CB         4.2070   14.2120  189.3440 C.3   154  GLU154      0.0388
    162  CG         4.1940   12.7240  189.5540 C.3   154  GLU154      0.1160
    163  CD         3.8990   11.9480  188.2700 C.2   154  GLU154      0.3649
    164  OE1        3.2120   12.4980  187.3880 O.co2 154  GLU154     -0.2457
    165  OE2        4.3350   10.7800  188.1710 O.co2 154  GLU154     -0.2457
@<TRIPOS>BOND
     1   137   136    1
     2   137   138    2
     3   135   136    1
     4   136   139    1
     5   139   140    1
     6   140   141    1
     7   141   142    1
     8   142   143    2
     9   145   143    1
    10   143   144    1
    11    27    26    2
    12    26    25    1
    13    24    25    1
    14    25    28    1
    15    48    47    1
    16    50    51    1
    17    49    47    1
    18    28    29    1
    19    53    52    2
    20    47    46    2
    21    29    30    1
    22   121   120   ar
    23    20    21    2
    24    20    19    1
    25    56    58   ar
    26    56    55   ar
    27    51    52    1
    28    51    54    1
    29    23    22    1
    30    58    60   ar
    31    46    45    1
    32    54    55    1
    33    55    57   ar
    34   120   122   ar
    35   120   119    1
    36    19    22    1
    37    19    18    1
    38    32    31    1
    39     6     5    1
    40    30    31    1
    41    45    44    1
    42   153   154    2
    43   153   152    1
    44   156   154    1
    45   154   155    1
    46   152   151    1
    47     7     5    1
    48    60    61    1
    49    60    59   ar
    50    42    41    2
    51     5     2    1
    52   119   118    1
    53    41    40    1
    54    44    43    1
    55   118   115    1
    56    57    59   ar
    57   151   150    1
    58   150   147    1
    59    43    40    1
    60    40    39    1
    61    36    35    2
    62    33    34    1
    63     2     3    1
    64     2     1    1
    65   115   114    1
    66   115   116    1
    67    16    17    2
    68    16    15    1
    69    11    10    2
    70    15    14    1
    71     3     4    2
    72     3     8   am
    73   102   101    1
    74    14    10   am
    75    10     9    1
    76     8     9    1
    77   147   148    1
    78   147   146    1
    79    35    34    1
    80   148   149    2
    81    90    89    1
    82    99   101   ar
    83    99    97   ar
    84   116   117    2
    85    34    37    1
    86    37    38    1
    87     9    12    1
    88   101   100   ar
    89    88    89   ar
    90    88    86   ar
    91    97    96   ar
    92    89    87   ar
    93    86    84   ar
    94   100    98   ar
    95   164   163   ar
    96    12    13    1
    97    87    85   ar
    98    96    98   ar
    99    96    95    1
   100   165   163   ar
   101   163   162    1
   102    84    85   ar
   103    84    83    1
   104   123   124    1
   105    82    81    2
   106    95    92    1
   107   106   105    2
   108   124   127    1
   109   124   125    1
   110   161   162    1
   111   161   158    1
   112    83    80    1
   113    81    80    1
   114    92    91    1
   115    92    93    1
   116   127   128    1
   117   112   111    1
   118   103    93   am
   119   103   104    1
   120   113   111    1
   121   105   107   am
   122   105   104    1
   123   108   111    1
   124   108   107    1
   125   108   109    1
   126    80    79    1
   127    93    94    2
   128   159   158    1
   129   159   160    2
   130   125   126    2
   131   109   110    2
   132   158   157    1
   133   128   130   am
   134   128   129    2
   135    69    68   ar
   136    68    70   ar
   137    68    67    1
   138    74    73    2
   139   132   133    1
   140   132   131    1
   141    67    66    1
   142    73    72    1
   143   133   134    2
   144    65    64    2
   145    75    72    1
   146    75    76    1
   147    78    76   ar
   148    71    72    1
   149    76    77   ar
   150    64    63    1
   151    66    63    1
   152    62    63    1
