@<TRIPOS>MOLECULE
tmp/2qosA00.pdb
 246 227 0 0 0
SMALL
GASTEIGER

@<TRIPOS>ATOM
      1  N         48.0110   29.1050   42.3230 N.3    24  LEU24      -0.1245
      2  CA        47.1780   30.0710   41.6060 C.3    24  LEU24       0.1561
      3  C         48.0660   31.1200   40.9240 C.2    24  LEU24       0.2260
      4  O         48.8790   31.7950   41.5660 O.2    24  LEU24      -0.2867
      5  CB        46.1910   30.7480   42.5620 C.3    24  LEU24       0.0270
      6  CG        45.3240   31.8440   41.9310 C.3    24  LEU24       0.0019
      7  CD1       44.5140   31.2720   40.7650 C.3    24  LEU24       0.0001
      8  CD2       44.3810   32.4360   42.9920 C.3    24  LEU24       0.0001
      9  N         43.6740   35.4490   37.8650 N.3    27  VAL27      -0.1245
     10  CA        42.2210   35.4010   37.8680 C.3    27  VAL27       0.1561
     11  C         41.6990   36.4850   36.9400 C.2    27  VAL27       0.2260
     12  O         42.1870   37.6120   36.9660 O.2    27  VAL27      -0.2867
     13  CB        41.6380   35.6640   39.2800 C.3    27  VAL27       0.0252
     14  CG1       40.1120   35.5620   39.2420 C.3    27  VAL27       0.0019
     15  CG2       42.1980   34.6550   40.2780 C.3    27  VAL27       0.0019
     16  N         38.3240   38.4280   36.1940 N.3    29  SER29      -0.1217
     17  CA        37.0080   38.6150   36.7930 C.3    29  SER29       0.1889
     18  C         36.5650   40.0710   36.7890 C.2    29  SER29       0.2288
     19  O         37.3890   40.9860   36.8270 O.2    29  SER29      -0.2866
     20  CB        37.0270   38.1120   38.2410 C.3    29  SER29       0.2089
     21  OG        35.8370   38.4670   38.9200 O.3    29  SER29      -0.2183
     22  N         34.6620   41.1320   39.1450 N.3    31  ALA31      -0.1245
     23  CA        34.3580   41.3670   40.5520 C.3    31  ALA31       0.1562
     24  C         34.8720   42.7140   41.0560 C.2    31  ALA31       0.2260
     25  O         36.0490   43.0410   40.8980 O.2    31  ALA31      -0.2867
     26  CB        34.9310   40.2310   41.4080 C.3    31  ALA31       0.0290
     27  N         35.4570   43.7000   44.0730 N.3    33  PHE33      -0.1227
     28  CA        36.5040   43.5300   45.0740 C.3    33  PHE33       0.1736
     29  C         37.8990   43.4790   44.4710 C.2    33  PHE33       0.2595
     30  O         38.8310   44.0990   44.9820 O.2    33  PHE33      -0.2718
     31  CB        36.2790   42.2540   45.8840 C.3    33  PHE33       0.0547
     32  CG        37.3350   42.0090   46.9240 C.ar   33  PHE33      -0.0202
     33  CD1       37.3630   42.7650   48.0920 C.ar   33  PHE33      -0.0042
     34  CD2       38.3140   41.0400   46.7270 C.ar   33  PHE33      -0.0042
     35  CE1       38.3530   42.5630   49.0530 C.ar   33  PHE33      -0.0003
     36  CE2       39.3110   40.8280   47.6800 C.ar   33  PHE33      -0.0003
     37  CZ        39.3300   41.5920   48.8470 C.ar   33  PHE33      -0.0000
     38  N         38.0480   42.7310   43.3870 N.am   34  LEU34      -0.1980
     39  CA        39.3480   42.6170   42.7480 C.3    34  LEU34       0.1596
     40  C         39.7780   43.9230   42.1000 C.2    34  LEU34       0.2287
     41  O         40.9510   44.2820   42.1370 O.2    34  LEU34      -0.2864
     42  CB        39.3320   41.4950   41.7070 C.3    34  LEU34       0.0297
     43  CG        39.2530   40.0870   42.2980 C.3    34  LEU34       0.0022
     44  CD1       39.0360   39.0790   41.1850 C.3    34  LEU34       0.0001
     45  CD2       40.5370   39.7770   43.0600 C.3    34  LEU34       0.0001
     46  N         48.3840   32.2130   46.6290 N.3    44  THR44      -0.1218
     47  CA        47.3720   31.2160   46.9310 C.3    44  THR44       0.1862
     48  C         47.6860   29.8490   46.3470 C.2    44  THR44       0.2287
     49  O         48.1020   29.7310   45.1910 O.2    44  THR44      -0.2866
     50  CB        46.0040   31.7050   46.4050 C.3    44  THR44       0.1770
     51  OG1       45.7020   32.9730   47.0040 O.3    44  THR44      -0.2211
     52  CG2       44.8980   30.7150   46.7370 C.3    44  THR44       0.0375
     53  N         46.2600   25.6570   46.0310 N.3    46  LEU46      -0.1245
     54  CA        45.0900   24.7990   46.0780 C.3    46  LEU46       0.1561
     55  C         45.5520   23.3540   46.2330 C.2    46  LEU46       0.2260
     56  O         46.5300   22.9370   45.6110 O.2    46  LEU46      -0.2867
     57  CB        44.2880   24.9440   44.7760 C.3    46  LEU46       0.0270
     58  CG        42.8150   24.5410   44.7480 C.3    46  LEU46       0.0019
     59  CD1       41.9670   25.6200   45.4250 C.3    46  LEU46       0.0001
     60  CD2       42.3710   24.3710   43.3060 C.3    46  LEU46       0.0001
     61  N         42.3240   25.4060   50.3060 N.3    59  THR59      -0.1218
     62  CA        42.9960   26.5700   49.7550 C.3    59  THR59       0.1862
     63  C         43.8780   27.1430   50.8520 C.2    59  THR59       0.2287
     64  O         43.4290   27.3340   51.9830 O.2    59  THR59      -0.2866
     65  CB        41.9810   27.6300   49.2870 C.3    59  THR59       0.1770
     66  OG1       41.1380   27.0640   48.2700 O.3    59  THR59      -0.2211
     67  CG2       42.7020   28.8380   48.7150 C.3    59  THR59       0.0375
     68  N         46.5110   30.2340   52.0300 N.3    61  ARG61      -0.1245
     69  CA        46.9220   31.6030   51.7730 C.3    61  ARG61       0.1563
     70  C         47.0210   32.3440   53.0920 C.2    61  ARG61       0.2260
     71  O         46.4190   31.9480   54.0910 O.2    61  ARG61      -0.2867
     72  CB        45.9020   32.3110   50.8830 C.3    61  ARG61       0.0307
     73  CG        44.4740   32.2430   51.4220 C.3    61  ARG61       0.0489
     74  CD        43.6260   33.3580   50.8500 C.3    61  ARG61       0.2205
     75  NE        43.9820   34.6570   51.4120 N.pl3  61  ARG61      -0.0865
     76  CZ        43.4250   35.8070   51.0430 C.cat  61  ARG61       0.5346
     77  NH1       42.4850   35.8190   50.1070 N.pl3  61  ARG61       0.1354
     78  NH2       43.8060   36.9440   51.6110 N.pl3  61  ARG61       0.1354
     79  N         46.6240   35.7020   55.6490 N.3    63  LEU63      -0.1245
     80  CA        45.6480   36.7230   55.9980 C.3    63  LEU63       0.1561
     81  C         46.3180   37.4650   57.1480 C.2    63  LEU63       0.2260
     82  O         46.5780   36.8780   58.1940 O.2    63  LEU63      -0.2867
     83  CB        44.3410   36.0870   56.4740 C.3    63  LEU63       0.0270
     84  CG        43.2450   37.0580   56.9390 C.3    63  LEU63       0.0019
     85  CD1       42.8210   37.9440   55.7790 C.3    63  LEU63       0.0001
     86  CD2       42.0510   36.2810   57.4820 C.3    63  LEU63       0.0001
     87  N         46.5330   30.5550   56.4590 N.3    68  TRP68      -0.1241
     88  CA        45.2170   29.9740   56.6730 C.3    68  TRP68       0.1605
     89  C         44.9520   28.8360   55.7040 C.2    68  TRP68       0.2264
     90  O         45.5280   28.7770   54.6150 O.2    68  TRP68      -0.2867
     91  CB        44.1190   31.0190   56.4720 C.3    68  TRP68       0.0550
     92  CG        43.8310   31.8510   57.6750 C.ar   68  TRP68       0.0003
     93  CD1       44.5320   32.9380   58.1110 C.ar   68  TRP68       0.0946
     94  CD2       42.7670   31.6560   58.6090 C.ar   68  TRP68       0.0152
     95  NE1       43.9680   33.4360   59.2630 N.ar   68  TRP68      -0.2442
     96  CE2       42.8830   32.6670   59.5930 C.ar   68  TRP68       0.0810
     97  CE3       41.7250   30.7240   58.7140 C.ar   68  TRP68       0.0012
     98  CZ2       41.9920   32.7740   60.6700 C.ar   68  TRP68       0.0191
     99  CZ3       40.8390   30.8280   59.7830 C.ar   68  TRP68       0.0001
    100  CH2       40.9820   31.8500   60.7500 C.ar   68  TRP68       0.0015
    101  N         41.5890   26.9310   54.0380 N.3    70  VAL70      -0.1245
    102  CA        40.1410   26.9450   53.8610 C.3    70  VAL70       0.1561
    103  C         39.7630   25.5810   53.2920 C.2    70  VAL70       0.2260
    104  O         40.2950   25.1690   52.2680 O.2    70  VAL70      -0.2867
    105  CB        39.6870   28.0320   52.8590 C.3    70  VAL70       0.0252
    106  CG1       38.1700   28.0190   52.7300 C.3    70  VAL70       0.0019
    107  CG2       40.1690   29.3990   53.3090 C.3    70  VAL70       0.0019
    108  N         36.9700   23.2200   51.5770 N.3    72  GLN72      -0.1245
    109  CA        35.7020   23.2370   50.8580 C.3    72  GLN72       0.1566
    110  C         35.4890   21.9000   50.1870 C.2    72  GLN72       0.2260
    111  O         36.4010   21.0770   50.1060 O.2    72  GLN72      -0.2867
    112  CB        35.6950   24.3210   49.7790 C.3    72  GLN72       0.0367
    113  CG        35.6850   25.7450   50.2960 C.3    72  GLN72       0.0905
    114  CD        35.8330   26.7460   49.1700 C.2    72  GLN72       0.2608
    115  OE1       36.7940   26.6800   48.4000 O.2    72  GLN72      -0.2717
    116  NE2       34.8800   27.6700   49.0570 N.am   72  GLN72      -0.0878
    117  N         34.0080   20.3890   46.5950 N.3    74  TYR74      -0.1241
    118  CA        33.5070   20.6060   45.2430 C.3    74  TYR74       0.1605
    119  C         32.5900   19.4200   44.9610 C.2    74  TYR74       0.2264
    120  O         33.0540   18.3310   44.6220 O.2    74  TYR74      -0.2867
    121  CB        34.6740   20.6270   44.2470 C.3    74  TYR74       0.0534
    122  CG        35.4130   21.9450   44.1500 C.ar   74  TYR74      -0.0201
    123  CD1       35.4270   22.8510   45.2140 C.ar   74  TYR74      -0.0009
    124  CD2       36.1250   22.2700   42.9990 C.ar   74  TYR74      -0.0009
    125  CE1       36.1350   24.0500   45.1300 C.ar   74  TYR74       0.0417
    126  CE2       36.8350   23.4590   42.9030 C.ar   74  TYR74       0.0417
    127  CZ        36.8400   24.3460   43.9690 C.ar   74  TYR74       0.1957
    128  OH        37.5660   25.5130   43.8600 O.3    74  TYR74      -0.2866
    129  N         29.8520   24.3680   44.4700 N.3    85  LEU85      -0.1245
    130  CA        30.1930   24.8460   45.8020 C.3    85  LEU85       0.1561
    131  C         28.8170   25.3100   46.2710 C.2    85  LEU85       0.2260
    132  O         28.3580   26.3830   45.8850 O.2    85  LEU85      -0.2867
    133  CB        31.1590   26.0290   45.7250 C.3    85  LEU85       0.0270
    134  CG        32.6480   25.6910   45.6900 C.3    85  LEU85       0.0019
    135  CD1       33.4730   26.9730   45.5670 C.3    85  LEU85       0.0001
    136  CD2       33.0260   24.9620   46.9870 C.3    85  LEU85       0.0001
    137  N         24.8060   33.3910   51.0700 N.3    91  ARG91      -0.1245
    138  CA        25.9500   33.1850   50.1840 C.3    91  ARG91       0.1563
    139  C         25.5560   32.2800   49.0140 C.2    91  ARG91       0.2260
    140  O         25.3780   31.0720   49.1880 O.2    91  ARG91      -0.2867
    141  CB        27.1010   32.5470   50.9590 C.3    91  ARG91       0.0307
    142  CG        27.5580   33.3720   52.1570 C.3    91  ARG91       0.0489
    143  CD        28.6260   32.6350   52.9380 C.3    91  ARG91       0.2205
    144  NE        29.8900   32.5780   52.2150 N.pl3  91  ARG91      -0.0865
    145  CZ        30.9350   31.8630   52.6130 C.cat  91  ARG91       0.5346
    146  NH1       30.8570   31.1460   53.7240 N.pl3  91  ARG91       0.1354
    147  NH2       32.0550   31.8640   51.9020 N.pl3  91  ARG91       0.1354
    148  N         28.2830   28.5310   43.9500 N.3    94  VAL94      -0.1245
    149  CA        29.3240   28.8070   42.9790 C.3    94  VAL94       0.1561
    150  C         29.4970   27.5650   42.1230 C.2    94  VAL94       0.2260
    151  O         29.7630   26.4720   42.6350 O.2    94  VAL94      -0.2867
    152  CB        30.6670   29.1290   43.6610 C.3    94  VAL94       0.0252
    153  CG1       31.7320   29.3860   42.6030 C.3    94  VAL94       0.0019
    154  CG2       30.5150   30.3380   44.5700 C.3    94  VAL94       0.0019
    155  N         34.6080   29.7590   37.2900 N.3   111  LEU111     -0.1231
    156  CA        33.7350   29.7800   38.4570 C.3   111  LEU111      0.1693
    157  C         32.6130   30.7430   38.1350 C.2   111  LEU111      0.2592
    158  O         32.8470   31.7800   37.5170 O.2   111  LEU111     -0.2718
    159  CB        34.4810   30.2710   39.6990 C.3   111  LEU111      0.0284
    160  CG        35.4230   29.2970   40.4210 C.3   111  LEU111      0.0019
    161  CD1       36.7240   29.1800   39.6470 C.3   111  LEU111      0.0001
    162  CD2       35.6970   29.8260   41.8330 C.3   111  LEU111      0.0001
    163  N         31.3960   30.4050   38.5460 N.am  112  GLU112     -0.1966
    164  CA        30.2680   31.2750   38.2710 C.3   112  GLU112      0.1733
    165  C         29.2940   31.3960   39.4250 C.2   112  GLU112      0.2616
    166  O         28.9010   30.3990   40.0330 O.2   112  GLU112     -0.2715
    167  CB        29.5090   30.7870   37.0390 C.3   112  GLU112      0.0429
    168  CG        28.2860   31.6210   36.7200 C.3   112  GLU112      0.1163
    169  CD        27.4650   31.0230   35.5980 C.2   112  GLU112      0.3649
    170  OE1       27.9710   30.9550   34.4640 O.co2 112  GLU112     -0.2457
    171  OE2       26.3150   30.6140   35.8530 O.co2 112  GLU112     -0.2457
    172  N         28.9150   32.6320   39.7280 N.am  113  ARG113     -0.1977
    173  CA        27.9500   32.8900   40.7830 C.3   113  ARG113      0.1597
    174  C         27.0600   34.0280   40.3090 C.2   113  ARG113      0.2287
    175  O         27.5500   35.0330   39.7960 O.2   113  ARG113     -0.2864
    176  CB        28.6440   33.2860   42.0870 C.3   113  ARG113      0.0334
    177  CG        27.6480   33.7000   43.1540 C.3   113  ARG113      0.0492
    178  CD        28.2900   33.9430   44.5090 C.3   113  ARG113      0.2205
    179  NE        27.3480   34.6200   45.3960 N.pl3 113  ARG113     -0.0865
    180  CZ        27.6330   35.0370   46.6240 C.cat 113  ARG113      0.5346
    181  NH1       28.8490   34.8450   47.1270 N.pl3 113  ARG113      0.1354
    182  NH2       26.6980   35.6500   47.3450 N.pl3 113  ARG113      0.1354
    183  N         27.6700   35.5910   36.9140 N.3   116  GLN116     -0.1245
    184  CA        28.9300   36.2740   36.6400 C.3   116  GLN116      0.1566
    185  C         30.0560   35.2530   36.5680 C.2   116  GLN116      0.2260
    186  O         30.3180   34.5390   37.5350 O.2   116  GLN116     -0.2867
    187  CB        29.2300   37.3040   37.7310 C.3   116  GLN116      0.0367
    188  CG        28.2600   38.4770   37.7580 C.3   116  GLN116      0.0905
    189  CD        28.3690   39.3480   36.5190 C.2   116  GLN116      0.2608
    190  OE1       29.4250   39.9180   36.2380 O.2   116  GLN116     -0.2717
    191  NE2       27.2760   39.4530   35.7690 N.am  116  GLN116     -0.0878
    192  N         33.9770   33.8800   36.1840 N.3   118  SER118     -0.1217
    193  CA        35.3360   34.2100   36.5940 C.3   118  SER118      0.1889
    194  C         36.2600   33.1080   36.0570 C.2   118  SER118      0.2288
    195  O         35.8600   31.9500   35.9860 O.2   118  SER118     -0.2866
    196  CB        35.4080   34.2810   38.1190 C.3   118  SER118      0.2089
    197  OG        36.7200   34.5550   38.5670 O.3   118  SER118     -0.2183
    198  N         40.1910   31.2370   36.2500 N.3   120  LYS120     -0.1245
    199  CA        41.4310   31.0910   37.0000 C.3   120  LYS120      0.1561
    200  C         42.4260   30.1830   36.3080 C.2   120  LYS120      0.2260
    201  O         42.0510   29.1620   35.7220 O.2   120  LYS120     -0.2867
    202  CB        41.1770   30.5140   38.3950 C.3   120  LYS120      0.0271
    203  CG        40.2020   31.2750   39.2650 C.3   120  LYS120      0.0035
    204  CD        40.2210   30.6720   40.6610 C.3   120  LYS120      0.0206
    205  CE        39.2060   31.3130   41.5820 C.3   120  LYS120      0.1093
    206  NZ        39.2690   30.7070   42.9470 N.3   120  LYS120     -0.1314
    207  N         45.8570   27.9680   36.9920 N.3   122  TYR122     -0.1241
    208  CA        46.6740   27.3330   38.0030 C.3   122  TYR122      0.1605
    209  C         47.8370   26.6560   37.3070 C.2   122  TYR122      0.2264
    210  O         47.7630   26.3050   36.1250 O.2   122  TYR122     -0.2867
    211  CB        45.9030   26.2600   38.7740 C.3   122  TYR122      0.0534
    212  CG        44.7960   26.7920   39.6550 C.ar  122  TYR122     -0.0201
    213  CD1       43.5080   26.9690   39.1510 C.ar  122  TYR122     -0.0009
    214  CD2       45.0330   27.1140   40.9960 C.ar  122  TYR122     -0.0009
    215  CE1       42.4860   27.4490   39.9590 C.ar  122  TYR122      0.0417
    216  CE2       44.0180   27.5960   41.8090 C.ar  122  TYR122      0.0417
    217  CZ        42.7510   27.7600   41.2820 C.ar  122  TYR122      0.1957
    218  OH        41.7600   28.2520   42.0870 O.3   122  TYR122     -0.2866
    219  N         48.5440   36.9210   40.4060 N.3   153  PHE153     -0.1241
    220  CA        48.8330   36.7490   41.8170 C.3   153  PHE153      0.1605
    221  C         50.3150   36.5930   42.1240 C.2   153  PHE153      0.2264
    222  O         51.1140   36.2900   41.2410 O.2   153  PHE153     -0.2867
    223  CB        48.0340   35.5610   42.3600 C.3   153  PHE153      0.0534
    224  CG        46.6050   35.8990   42.6810 C.ar  153  PHE153     -0.0203
    225  CD1       45.7570   36.4130   41.7050 C.ar  153  PHE153     -0.0042
    226  CD2       46.1180   35.7420   43.9700 C.ar  153  PHE153     -0.0042
    227  CE1       44.4460   36.7680   42.0110 C.ar  153  PHE153     -0.0003
    228  CE2       44.8060   36.0960   44.2850 C.ar  153  PHE153     -0.0003
    229  CZ        43.9710   36.6110   43.3020 C.ar  153  PHE153     -0.0000
    230  N         39.6740   27.1970   58.2360 N.3   168  LEU168     -0.1245
    231  CA        38.2860   27.5790   58.0070 C.3   168  LEU168      0.1561
    232  C         37.5910   26.4150   57.3210 C.2   168  LEU168      0.2260
    233  O         37.9250   26.0670   56.1890 O.2   168  LEU168     -0.2867
    234  CB        38.2140   28.8240   57.1190 C.3   168  LEU168      0.0270
    235  CG        36.8140   29.2940   56.7080 C.3   168  LEU168      0.0019
    236  CD1       35.9920   29.6020   57.9490 C.3   168  LEU168      0.0001
    237  CD2       36.9230   30.5320   55.8230 C.3   168  LEU168      0.0001
    238  N         34.4930   25.0980   55.5190 N.3   170  GLU170     -0.1245
    239  CA        33.2560   25.4620   54.8380 C.3   170  GLU170      0.1567
    240  C         32.6130   24.2380   54.1970 C.2   170  GLU170      0.2260
    241  O         31.9410   24.3370   53.1710 O.2   170  GLU170     -0.2867
    242  CB        33.5140   26.5410   53.7820 C.3   170  GLU170      0.0388
    243  CG        33.8150   27.9110   54.3730 C.3   170  GLU170      0.1160
    244  CD        33.4910   29.0490   53.4210 C.2   170  GLU170      0.3649
    245  OE1       33.5560   30.2240   53.8470 O.co2 170  GLU170     -0.2457
    246  OE2       33.1670   28.7710   52.2460 O.co2 170  GLU170     -0.2457
@<TRIPOS>BOND
     1   170   169   ar
     2   169   171   ar
     3   169   168    1
     4   201   200    2
     5   191   189   am
     6   195   194    2
     7   194   193    1
     8   210   209    2
     9   192   193    1
    10    16    17    1
    11   190   189    2
    12   198   199    1
    13   200   199    1
    14   189   188    1
    15   185   184    1
    16   185   186    2
    17   193   196    1
    18   184   183    1
    19   184   187    1
    20   168   167    1
    21    18    17    1
    22    18    19    2
    23    17    20    1
    24    11    12    2
    25    11    10    1
    26   207   208    1
    27   199   202    1
    28   167   164    1
    29   155   156    1
    30   209   208    1
    31   158   157    2
    32   187   188    1
    33     9    10    1
    34    10    13    1
    35   208   211    1
    36   196   197    1
    37   157   156    1
    38   157   163   am
    39    20    21    1
    40   164   163    1
    41   164   165    1
    42   202   203    1
    43   156   159    1
    44   211   212    1
    45    22    23    1
    46   213   212   ar
    47   213   215   ar
    48    14    13    1
    49   203   204    1
    50    13    15    1
    51   165   172   am
    52   165   166    2
    53   161   160    1
    54   212   214   ar
    55   159   160    1
    56   172   173    1
    57   175   174    2
    58   215   217   ar
    59   174   173    1
    60   219   220    1
    61   160   162    1
    62    23    24    1
    63    23    26    1
    64   204   205    1
    65     7     6    1
    66   173   176    1
    67    25    24    2
    68     3     4    2
    69     3     2    1
    70   214   216   ar
    71    44    43    1
    72   222   221    2
    73   217   216   ar
    74   217   218    1
    75   205   206    1
    76     2     1    1
    77     2     5    1
    78   225   227   ar
    79   225   224   ar
    80    42    43    1
    81    42    39    1
    82   220   221    1
    83   220   223    1
    84     6     5    1
    85     6     8    1
    86   227   229   ar
    87   176   177    1
    88    40    41    2
    89    40    39    1
    90   150   151    2
    91   150   149    1
    92    43    45    1
    93   223   224    1
    94   153   152    1
    95   224   226   ar
    96    39    38    1
    97   126   124   ar
    98   126   127   ar
    99   149   152    1
   100   149   148    1
   101   124   122   ar
   102   177   178    1
   103   229   228   ar
   104    60    58    1
   105    38    29   am
   106   152   154    1
   107   128   127    1
   108   127   125   ar
   109   226   228   ar
   110    27    28    1
   111   122   121    1
   112   122   123   ar
   113   121   118    1
   114   129   130    1
   115    29    30    2
   116    29    28    1
   117   178   179    1
   118   120   119    2
   119    58    57    1
   120    58    59    1
   121    57    54    1
   122   119   118    1
   123    28    31    1
   124   125   123   ar
   125    49    48    2
   126   118   117    1
   127   179   180    2
   128   135   134    1
   129    56    55    2
   130   134   133    1
   131   134   136    1
   132   133   130    1
   133   130   131    1
   134    31    32    1
   135   132   131    2
   136    53    54    1
   137    54    55    1
   138    48    47    1
   139    50    52    1
   140    50    47    1
   141    50    51    1
   142   180   181    1
   143   180   182    1
   144    46    47    1
   145    34    32   ar
   146    34    36   ar
   147    32    33   ar
   148    36    37   ar
   149    33    35   ar
   150    66    65    1
   151   115   114    2
   152    67    65    1
   153    37    35   ar
   154   139   140    2
   155   139   138    1
   156   116   114   am
   157   114   113    1
   158    65    62    1
   159    62    61    1
   160    62    63    1
   161   112   113    1
   162   112   109    1
   163   111   110    2
   164    77    76    1
   165   138   141    1
   166   138   137    1
   167   110   109    1
   168    74    75    1
   169    74    73    1
   170    63    64    2
   171   109   108    1
   172    72    73    1
   173    72    69    1
   174   141   142    1
   175    76    75    2
   176    76    78    1
   177    69    68    1
   178    69    70    1
   179   147   145    1
   180   142   143    1
   181   144   145    2
   182   144   143    1
   183   246   244   ar
   184   104   103    2
   185   145   146    1
   186   106   105    1
   187   105   107    1
   188   105   102    1
   189    70    71    2
   190   241   240    2
   191   103   102    1
   192   244   245   ar
   193   244   243    1
   194   242   243    1
   195   242   239    1
   196   102   101    1
   197   240   239    1
   198    90    89    2
   199   239   238    1
   200    79    80    1
   201    89    88    1
   202    85    84    1
   203   237   235    1
   204    80    83    1
   205    80    81    1
   206   233   232    2
   207    87    88    1
   208    91    88    1
   209    91    92    1
   210    83    84    1
   211   235   234    1
   212   235   236    1
   213    84    86    1
   214   234   231    1
   215    81    82    2
   216   232   231    1
   217    92    93   ar
   218    92    94   ar
   219   231   230    1
   220    93    95   ar
   221    94    97   ar
   222    94    96   ar
   223    97    99   ar
   224    95    96   ar
   225    96    98   ar
   226    99   100   ar
   227    98   100   ar
