@<TRIPOS>MOLECULE
tmp/2qp3A00.pdb
 162 162 0 0 0
SMALL
GASTEIGER

@<TRIPOS>ATOM
      1  N         20.2350   46.1160   68.7380 N.3    13  PRO13      -0.2116
      2  CA        20.9720   46.2110   67.4790 C.3    13  PRO13       0.1372
      3  C         20.0690   45.7370   66.3380 C.2    13  PRO13       0.2244
      4  O         19.2620   44.8210   66.5190 O.2    13  PRO13      -0.2868
      5  CB        22.1680   45.2860   67.7100 C.3    13  PRO13       0.0268
      6  CG        22.3680   45.3430   69.1810 C.3    13  PRO13       0.0207
      7  CD        20.9460   45.2500   69.6890 C.3    13  PRO13       0.0892
      8  N         20.8420   44.2460   63.2650 N.3    15  MET15      -0.1230
      9  CA        21.1990   42.9000   62.8440 C.3    15  MET15       0.1702
     10  C         21.2290   41.9550   64.0420 C.2    15  MET15       0.2593
     11  O         21.4610   42.3870   65.1620 O.2    15  MET15      -0.2718
     12  CB        22.5810   42.9130   62.1700 C.3    15  MET15       0.0401
     13  CG        22.8290   44.0670   61.1820 C.3    15  MET15       0.0596
     14  SD        21.9090   44.0020   59.6110 S.3    15  MET15      -0.1393
     15  CE        23.1290   43.2450   58.5220 C.3    15  MET15       0.0692
     16  N         20.9780   40.6710   63.7990 N.am   16  GLY16      -0.1942
     17  CA        21.0260   39.6820   64.8650 C.3    16  GLY16       0.2014
     18  C         19.8490   39.5530   65.8160 C.2    16  GLY16       0.2638
     19  O         19.8170   38.6150   66.6210 O.2    16  GLY16      -0.2714
     20  N         18.8870   40.4710   65.7380 N.am   17  PHE17      -0.1973
     21  CA        17.7240   40.4250   66.6230 C.3    17  PHE17       0.1639
     22  C         16.3930   40.5680   65.8850 C.2    17  PHE17       0.2290
     23  O         16.3530   41.0220   64.7400 O.2    17  PHE17      -0.2864
     24  CB        17.8210   41.5290   67.6820 C.3    17  PHE17       0.0560
     25  CG        19.0260   41.4160   68.5800 C.ar   17  PHE17      -0.0200
     26  CD1       20.3050   41.6760   68.0970 C.ar   17  PHE17      -0.0042
     27  CD2       18.8790   41.0560   69.9140 C.ar   17  PHE17      -0.0042
     28  CE1       21.4140   41.5790   68.9330 C.ar   17  PHE17      -0.0003
     29  CE2       19.9820   40.9580   70.7520 C.ar   17  PHE17      -0.0003
     30  CZ        21.2470   41.2190   70.2630 C.ar   17  PHE17      -0.0000
     31  N         25.2850   45.7710   78.9510 N.3    42  PRO42      -0.2102
     32  CA        26.3810   45.6490   77.9810 C.3    42  PRO42       0.1504
     33  C         27.6820   46.3950   78.2760 C.2    42  PRO42       0.2575
     34  O         27.6790   47.5620   78.6590 O.2    42  PRO42      -0.2718
     35  CB        25.7330   46.0680   76.6550 C.3    42  PRO42       0.0282
     36  CG        24.5370   46.9120   77.0840 C.3    42  PRO42       0.0208
     37  CD        24.0300   46.1800   78.2940 C.3    42  PRO42       0.0893
     38  N         28.7880   45.6740   78.0920 N.am   43  LYS43      -0.1980
     39  CA        30.1500   46.1700   78.2890 C.3    43  LYS43       0.1596
     40  C         30.5770   46.3220   79.7350 C.2    43  LYS43       0.2287
     41  O         31.3120   47.2390   80.0730 O.2    43  LYS43      -0.2864
     42  CB        30.3500   47.4870   77.5270 C.3    43  LYS43       0.0298
     43  CG        30.4380   47.2800   76.0290 C.3    43  LYS43       0.0038
     44  CD        31.6900   46.4710   75.7230 C.3    43  LYS43       0.0206
     45  CE        31.5830   45.6960   74.4390 C.3    43  LYS43       0.1093
     46  NZ        32.8010   44.8520   74.2650 N.3    43  LYS43      -0.1314
     47  N         31.1280   40.8520   80.7240 N.3    46  THR46      -0.1218
     48  CA        30.5090   39.5460   80.4340 C.3    46  THR46       0.1862
     49  C         31.4800   38.4720   79.9650 C.2    46  THR46       0.2287
     50  O         31.4630   37.3540   80.4580 O.2    46  THR46      -0.2866
     51  CB        29.4320   39.6480   79.3380 C.3    46  THR46       0.1770
     52  OG1       28.8770   40.9700   79.3250 O.3    46  THR46      -0.2211
     53  CG2       28.3310   38.6360   79.6040 C.3    46  THR46       0.0375
     54  N         33.0760   33.2140   71.9510 N.3    70  ILE70      -0.1231
     55  CA        32.2150   33.7400   73.0140 C.3    70  ILE70       0.1692
     56  C         30.7300   33.4130   72.8980 C.2    70  ILE70       0.2592
     57  O         30.1750   32.7160   73.7500 O.2    70  ILE70      -0.2718
     58  CB        32.3550   35.2790   73.1410 C.3    70  ILE70       0.0266
     59  CG1       32.2190   35.9300   71.7640 C.3    70  ILE70       0.0019
     60  CG2       33.6900   35.6320   73.7770 C.3    70  ILE70       0.0020
     61  CD1       32.2770   37.4420   71.7870 C.3    70  ILE70       0.0001
     62  N         30.0940   33.9140   71.8450 N.am   71  TRP71      -0.1976
     63  CA        28.6670   33.7030   71.6320 C.3    71  TRP71       0.1640
     64  C         28.2520   32.2390   71.5500 C.2    71  TRP71       0.2290
     65  O         27.0710   31.9260   71.3610 O.2    71  TRP71      -0.2864
     66  CB        28.2180   34.4450   70.3730 C.3    71  TRP71       0.0576
     67  CG        28.9560   34.0460   69.1420 C.ar   71  TRP71       0.0006
     68  CD1       28.7400   32.9350   68.3780 C.ar   71  TRP71       0.0946
     69  CD2       30.0430   34.7490   68.5330 C.ar   71  TRP71       0.0152
     70  NE1       29.6260   32.9030   67.3270 N.ar   71  TRP71      -0.2442
     71  CE2       30.4380   34.0040   67.3980 C.ar   71  TRP71       0.0810
     72  CE3       30.7240   35.9360   68.8340 C.ar   71  TRP71       0.0012
     73  CZ2       31.4860   34.4100   66.5630 C.ar   71  TRP71       0.0191
     74  CZ3       31.7670   36.3400   68.0040 C.ar   71  TRP71       0.0001
     75  CH2       32.1360   35.5770   66.8820 C.ar   71  TRP71       0.0015
     76  N         23.7060   34.5410   73.8910 N.3    76  TRP76      -0.1241
     77  CA        22.7090   35.4930   74.3720 C.3    76  TRP76       0.1605
     78  C         21.2950   34.9990   74.0080 C.2    76  TRP76       0.2264
     79  O         20.9280   34.9280   72.8340 O.2    76  TRP76      -0.2867
     80  CB        22.9590   36.8800   73.7550 C.3    76  TRP76       0.0550
     81  CG        24.1470   37.6330   74.3500 C.ar   76  TRP76       0.0003
     82  CD1       24.1100   38.5790   75.3460 C.ar   76  TRP76       0.0946
     83  CD2       25.5310   37.4640   74.0180 C.ar   76  TRP76       0.0152
     84  NE1       25.3770   39.0000   75.6520 N.ar   76  TRP76      -0.2442
     85  CE2       26.2710   38.3350   74.8550 C.ar   76  TRP76       0.0810
     86  CE3       26.2190   36.6590   73.1000 C.ar   76  TRP76       0.0012
     87  CZ2       27.6710   38.4220   74.8000 C.ar   76  TRP76       0.0191
     88  CZ3       27.6150   36.7450   73.0480 C.ar   76  TRP76       0.0001
     89  CH2       28.3230   37.6240   73.8950 C.ar   76  TRP76       0.0015
     90  N         19.1070   36.8960   71.4550 N.3    79  SER79      -0.1217
     91  CA        19.5120   36.9650   70.0490 C.3    79  SER79       0.1889
     92  C         18.9680   35.7900   69.2420 C.2    79  SER79       0.2288
     93  O         18.6160   34.7470   69.8050 O.2    79  SER79      -0.2866
     94  CB        21.0360   36.9750   69.9370 C.3    79  SER79       0.2089
     95  OG        21.5760   35.7460   70.3980 O.3    79  SER79      -0.2183
     96  N         20.5380   33.7810   66.9130 N.3    81  ILE81      -0.1231
     97  CA        21.4780   32.6880   67.0460 C.3    81  ILE81       0.1692
     98  C         21.4090   32.1210   68.4570 C.2    81  ILE81       0.2592
     99  O         21.4950   30.9070   68.6630 O.2    81  ILE81      -0.2718
    100  CB        22.9010   33.1880   66.7580 C.3    81  ILE81       0.0266
    101  CG1       22.9940   33.6240   65.2870 C.3    81  ILE81       0.0019
    102  CG2       23.9220   32.1130   67.1080 C.3    81  ILE81       0.0020
    103  CD1       24.2910   34.3140   64.9310 C.3    81  ILE81       0.0001
    104  N         21.2340   33.0140   69.4260 N.am   82  GLY82      -0.1957
    105  CA        21.1680   32.6030   70.8120 C.3    82  GLY82       0.1869
    106  C         19.9380   31.7900   71.1380 C.2    82  GLY82       0.2309
    107  O         20.0470   30.6340   71.5410 O.2    82  GLY82      -0.2863
    108  N         21.6160   40.6610   78.4150 N.3    98  HIS98      -0.1241
    109  CA        21.7360   42.0660   78.7990 C.3    98  HIS98       0.1621
    110  C         20.3530   42.6270   79.0490 C.2    98  HIS98       0.2264
    111  O         20.2060   43.8110   79.3130 O.2    98  HIS98      -0.2867
    112  CB        22.3560   42.9070   77.6880 C.3    98  HIS98       0.0745
    113  CG        23.7410   42.5060   77.3180 C.ar   98  HIS98       0.0817
    114  ND1       24.7620   42.4180   78.2390 N.ar   98  HIS98      -0.2268
    115  CD2       24.2800   42.1890   76.1200 C.ar   98  HIS98       0.1154
    116  CE1       25.8730   42.0610   77.6220 C.ar   98  HIS98       0.1986
    117  NE2       25.6070   41.9160   76.3350 N.ar   98  HIS98      -0.2212
    118  N         33.3700   50.6650   71.4750 N.3   132  PHE132     -0.1227
    119  CA        32.9040   49.4300   70.8730 C.3   132  PHE132      0.1736
    120  C         31.8170   49.7380   69.8380 C.2   132  PHE132      0.2595
    121  O         32.0020   49.4910   68.6430 O.2   132  PHE132     -0.2718
    122  CB        32.3520   48.5020   71.9530 C.3   132  PHE132      0.0547
    123  CG        31.8360   47.1870   71.4290 C.ar  132  PHE132     -0.0202
    124  CD1       32.7140   46.1730   71.0710 C.ar  132  PHE132     -0.0042
    125  CD2       30.4660   46.9700   71.2870 C.ar  132  PHE132     -0.0042
    126  CE1       32.2430   44.9680   70.5810 C.ar  132  PHE132     -0.0003
    127  CE2       29.9850   45.7700   70.7990 C.ar  132  PHE132     -0.0003
    128  CZ        30.8750   44.7640   70.4420 C.ar  132  PHE132     -0.0000
    129  N         30.6990   50.3020   70.2930 N.am  133  TRP133     -0.1976
    130  CA        29.5770   50.6100   69.4030 C.3   133  TRP133      0.1640
    131  C         29.8580   51.5140   68.2040 C.2   133  TRP133      0.2290
    132  O         29.3240   51.2790   67.1200 O.2   133  TRP133     -0.2864
    133  CB        28.4100   51.1990   70.1970 C.3   133  TRP133      0.0576
    134  CG        27.8480   50.2510   71.1810 C.ar  133  TRP133      0.0006
    135  CD1       27.7710   50.4240   72.5280 C.ar  133  TRP133      0.0946
    136  CD2       27.3430   48.9390   70.9130 C.ar  133  TRP133      0.0152
    137  NE1       27.2550   49.2980   73.1230 N.ar  133  TRP133     -0.2442
    138  CE2       26.9830   48.3690   72.1550 C.ar  133  TRP133      0.0810
    139  CE3       27.1620   48.1880   69.7430 C.ar  133  TRP133      0.0012
    140  CZ2       26.4550   47.0800   72.2660 C.ar  133  TRP133      0.0191
    141  CZ3       26.6360   46.9030   69.8490 C.ar  133  TRP133      0.0001
    142  CH2       26.2890   46.3620   71.1060 C.ar  133  TRP133      0.0015
    143  N         30.9950   49.6460   65.0180 N.3   136  ILE136     -0.1245
    144  CA        30.1790   48.5620   64.4940 C.3   136  ILE136      0.1561
    145  C         29.2510   49.0520   63.3960 C.2   136  ILE136      0.2260
    146  O         28.4900   50.0020   63.5920 O.2   136  ILE136     -0.2867
    147  CB        29.3440   47.9230   65.6090 C.3   136  ILE136      0.0252
    148  CG1       30.2660   47.1660   66.5510 C.3   136  ILE136      0.0019
    149  CG2       28.3060   46.9820   65.0260 C.3   136  ILE136      0.0019
    150  CD1       29.5950   46.7770   67.8090 C.3   136  ILE136      0.0001
    151  N         20.0400   48.8410   74.6150 N.3   159  TYR159     -0.1241
    152  CA        19.6710   48.1730   75.8570 C.3   159  TYR159      0.1605
    153  C         19.1340   49.0830   76.9560 C.2   159  TYR159      0.2264
    154  O         18.8660   48.6310   78.0720 O.2   159  TYR159     -0.2867
    155  CB        20.8430   47.3600   76.3890 C.3   159  TYR159      0.0534
    156  CG        21.1380   46.1580   75.5370 C.ar  159  TYR159     -0.0201
    157  CD1       22.0980   46.2100   74.5300 C.ar  159  TYR159     -0.0009
    158  CD2       20.4440   44.9670   75.7290 C.ar  159  TYR159     -0.0009
    159  CE1       22.3600   45.0990   73.7390 C.ar  159  TYR159      0.0417
    160  CE2       20.6940   43.8510   74.9450 C.ar  159  TYR159      0.0417
    161  CZ        21.6540   43.9190   73.9530 C.ar  159  TYR159      0.1957
    162  OH        21.9140   42.7990   73.1860 O.3   159  TYR159     -0.2866
@<TRIPOS>BOND
     1    15    14    1
     2    14    13    1
     3    13    12    1
     4    12     9    1
     5     9     8    1
     6     9    10    1
     7   145   146    2
     8   145   144    1
     9    16    10   am
    10    16    17    1
    11    10    11    2
    12   144   143    1
    13   144   147    1
    14    23    22    2
    15    17    18    1
    16   103   101    1
    17   149   147    1
    18   101   100    1
    19   147   148    1
    20    20    18   am
    21    20    21    1
    22    18    19    2
    23    22    21    1
    24     3     4    2
    25     3     2    1
    26   148   150    1
    27    73    75   ar
    28    73    71   ar
    29    21    24    1
    30   100    97    1
    31   100   102    1
    32    75    74   ar
    33    96    97    1
    34    97    98    1
    35   132   131    2
    36    70    71   ar
    37    70    68   ar
    38    71    69   ar
    39     2     5    1
    40     2     1    1
    41    24    25    1
    42     5     6    1
    43    74    72   ar
    44    26    25   ar
    45    26    28   ar
    46   131   130    1
    47    68    67   ar
    48    98    99    2
    49    98   104   am
    50    69    72   ar
    51    69    67   ar
    52    25    27   ar
    53   121   120    2
    54     1     7    1
    55    28    30   ar
    56    67    66    1
    57     6     7    1
    58    92    93    2
    59    92    91    1
    60   130   133    1
    61   130   129    1
    62   104   105    1
    63   139   141   ar
    64   139   136   ar
    65   120   129   am
    66   120   119    1
    67   141   142   ar
    68    27    29   ar
    69    94    91    1
    70    94    95    1
    71    91    90    1
    72   133   134    1
    73    30    29   ar
    74    66    63    1
    75   128   126   ar
    76   128   127   ar
    77   126   124   ar
    78   127   125   ar
    79   105   106    1
    80   119   118    1
    81   119   122    1
    82   136   134   ar
    83   136   138   ar
    84   124   123   ar
    85   142   140   ar
    86   106   107    2
    87   134   135   ar
    88   125   123   ar
    89    65    64    2
    90   123   122    1
    91    64    63    1
    92    63    62    1
    93    59    61    1
    94    59    58    1
    95    62    56   am
    96    54    55    1
    97   138   140   ar
    98   138   137   ar
    99   135   137   ar
   100    79    78    2
   101    56    55    1
   102    56    57    2
   103    55    58    1
   104    88    86   ar
   105    88    89   ar
   106    86    83   ar
   107    58    60    1
   108   162   161    1
   109   159   161   ar
   110   159   157   ar
   111    80    81    1
   112    80    77    1
   113    76    77    1
   114    89    87   ar
   115   161   160   ar
   116    78    77    1
   117    83    81   ar
   118    83    85   ar
   119    46    45    1
   120    81    82   ar
   121    45    44    1
   122   157   156   ar
   123   151   152    1
   124    87    85   ar
   125    85    84   ar
   126   160   158   ar
   127    82    84   ar
   128   156   158   ar
   129   156   155    1
   130    44    43    1
   131   152   155    1
   132   152   153    1
   133    43    42    1
   134   115   117   ar
   135   115   113   ar
   136   117   116   ar
   137    35    36    1
   138    35    32    1
   139   153   154    2
   140    36    37    1
   141   113   112    1
   142   113   114   ar
   143    42    39    1
   144   116   114   ar
   145   112   109    1
   146    32    33    1
   147    32    31    1
   148    38    33   am
   149    38    39    1
   150    33    34    2
   151    39    40    1
   152    37    31    1
   153   108   109    1
   154   109   110    1
   155   110   111    2
   156    52    51    1
   157    51    53    1
   158    51    48    1
   159    40    41    2
   160    49    48    1
   161    49    50    2
   162    48    47    1
