@<TRIPOS>MOLECULE
tmp/2qp6A01.pdb
 162 157 0 0 0
SMALL
GASTEIGER

@<TRIPOS>ATOM
      1  N          8.3370   -0.6660   10.2650 N.3     3  TRP3       -0.1241
      2  CA         7.7090   -1.5860   11.2080 C.3     3  TRP3        0.1605
      3  C          6.6880   -2.4520   10.4790 C.2     3  TRP3        0.2264
      4  O          6.1170   -2.0440    9.4650 O.2     3  TRP3       -0.2867
      5  CB         7.0200   -0.8390   12.3660 C.3     3  TRP3        0.0550
      6  CG         5.7470   -0.1040   12.0040 C.ar    3  TRP3        0.0003
      7  CD1        5.6330    1.2030   11.6270 C.ar    3  TRP3        0.0946
      8  CD2        4.4110   -0.6340   12.0140 C.ar    3  TRP3        0.0152
      9  NE1        4.3130    1.5230   11.4050 N.ar    3  TRP3       -0.2442
     10  CE2        3.5420    0.4130   11.6350 C.ar    3  TRP3        0.0810
     11  CE3        3.8650   -1.8930   12.3060 C.ar    3  TRP3        0.0012
     12  CZ2        2.1550    0.2420   11.5410 C.ar    3  TRP3        0.0191
     13  CZ3        2.4840   -2.0630   12.2120 C.ar    3  TRP3        0.0001
     14  CH2        1.6470   -0.9990   11.8320 C.ar    3  TRP3        0.0015
     15  N         -3.2640    0.1680    3.6130 N.3    60  ASN60      -0.1240
     16  CA        -2.1680    1.0040    4.0940 C.3    60  ASN60       0.1653
     17  C         -0.8630    0.2710    4.3790 C.2    60  ASN60       0.2266
     18  O          0.0670    0.8530    4.9360 O.2    60  ASN60      -0.2867
     19  CB        -2.5980    1.7630    5.3530 C.3    60  ASN60       0.1155
     20  CG        -2.9770    0.8340    6.4900 C.2    60  ASN60       0.2627
     21  OD1       -2.4300   -0.2570    6.6170 O.2    60  ASN60      -0.2716
     22  ND2       -3.9040    1.2720    7.3320 N.am   60  ASN60      -0.0877
     23  N         -0.4910   -2.3700    6.4090 N.3    62  HIS62      -0.1241
     24  CA        -0.6020   -3.2300    7.5840 C.3    62  HIS62       0.1621
     25  C         -2.0220   -3.7530    7.8000 C.2    62  HIS62       0.2264
     26  O         -2.2250   -4.7200    8.5280 O.2    62  HIS62      -0.2867
     27  CB        -0.0790   -2.5390    8.8590 C.3    62  HIS62       0.0745
     28  CG        -0.6720   -1.1920    9.1350 C.ar   62  HIS62       0.0817
     29  ND1       -0.1670   -0.0300    8.5920 N.ar   62  HIS62      -0.2268
     30  CD2       -1.6920   -0.8130    9.9410 C.ar   62  HIS62       0.1154
     31  CE1       -0.8460    1.0040    9.0520 C.ar   62  HIS62       0.1986
     32  NE2       -1.7770    0.5560    9.8750 N.ar   62  HIS62      -0.2212
     33  N         -8.2100    0.3380    5.7520 N.3    65  ASN65      -0.1240
     34  CA        -9.0550    1.3020    6.4450 C.3    65  ASN65       0.1653
     35  C        -10.2830    1.7080    5.6430 C.2    65  ASN65       0.2266
     36  O        -10.1800    2.0190    4.4550 O.2    65  ASN65      -0.2867
     37  CB        -8.2780    2.5970    6.7340 C.3    65  ASN65       0.1155
     38  CG        -7.2370    2.4510    7.8230 C.2    65  ASN65       0.2627
     39  OD1       -6.4180    3.3530    8.0240 O.2    65  ASN65      -0.2716
     40  ND2       -7.2620    1.3370    8.5380 N.am   65  ASN65      -0.0877
     41  N        -12.6110    6.1500   11.1480 N.3    90  GLN90      -0.1245
     42  CA       -12.2950    4.9920   10.3120 C.3    90  GLN90       0.1566
     43  C        -12.4430    3.7020   11.0900 C.2    90  GLN90       0.2260
     44  O        -12.5250    3.7170   12.3180 O.2    90  GLN90      -0.2867
     45  CB       -10.8470    5.0790    9.8060 C.3    90  GLN90       0.0367
     46  CG        -9.7920    5.1010   10.9260 C.3    90  GLN90       0.0905
     47  CD        -9.0320    3.7890   11.0860 C.2    90  GLN90       0.2608
     48  OE1       -9.6230    2.7130   11.1710 O.2    90  GLN90      -0.2717
     49  NE2       -7.7090    3.8820   11.1470 N.am   90  GLN90      -0.0878
     50  N        -11.1130   -0.6470   10.8510 N.3    92  HIS92      -0.1241
     51  CA       -10.2270   -1.6010   10.2070 C.3    92  HIS92       0.1621
     52  C        -10.2690   -2.8670   11.0430 C.2    92  HIS92       0.2264
     53  O        -10.8990   -2.8990   12.1050 O.2    92  HIS92      -0.2867
     54  CB        -8.7940   -1.0690   10.1780 C.3    92  HIS92       0.0745
     55  CG        -8.2280   -0.8160   11.5380 C.ar   92  HIS92       0.0817
     56  ND1       -8.4370    0.3610   12.2240 N.ar   92  HIS92      -0.2268
     57  CD2       -7.5270   -1.6200   12.3710 C.ar   92  HIS92       0.1154
     58  CE1       -7.8930    0.2670   13.4270 C.ar   92  HIS92       0.1986
     59  NE2       -7.3350   -0.9260   13.5420 N.ar   92  HIS92      -0.2212
     60  N         -7.9910   -6.6820   12.3040 N.3    94  HIS94      -0.1241
     61  CA        -6.7350   -7.3800   12.5670 C.3    94  HIS94       0.1621
     62  C         -7.1830   -8.8340   12.4490 C.2    94  HIS94       0.2264
     63  O         -8.2230   -9.2030   12.9930 O.2    94  HIS94      -0.2867
     64  CB        -6.2280   -7.1110   13.9860 C.3    94  HIS94       0.0745
     65  CG        -5.8890   -5.6780   14.2380 C.ar   94  HIS94       0.0817
     66  ND1       -4.6270   -5.1600   14.0350 N.ar   94  HIS94      -0.2268
     67  CD2       -6.6630   -4.6410   14.6350 C.ar   94  HIS94       0.1154
     68  CE1       -4.6400   -3.8640   14.2960 C.ar   94  HIS94       0.1986
     69  NE2       -5.8640   -3.5250   14.6600 N.ar   94  HIS94      -0.2212
     70  N        -11.9600   -2.7800   14.7140 N.3   117  HIS117     -0.1241
     71  CA       -11.6940   -1.5730   15.4880 C.3   117  HIS117      0.1621
     72  C        -12.3200   -0.3600   14.8170 C.2   117  HIS117      0.2264
     73  O        -11.9460    0.0070   13.7010 O.2   117  HIS117     -0.2867
     74  CB       -10.1860   -1.3440   15.6140 C.3   117  HIS117      0.0745
     75  CG        -9.5040   -2.3060   16.5340 C.ar  117  HIS117      0.0817
     76  ND1       -8.1370   -2.4890   16.5370 N.ar  117  HIS117     -0.2268
     77  CD2       -9.9990   -3.1440   17.4760 C.ar  117  HIS117      0.1154
     78  CE1       -7.8200   -3.4030   17.4370 C.ar  117  HIS117      0.1986
     79  NE2       -8.9310   -3.8160   18.0200 N.ar  117  HIS117     -0.2212
     80  N        -12.5040    3.4040   15.1050 N.3   119  VAL119     -0.1245
     81  CA       -11.7440    4.4930   15.7250 C.3   119  VAL119      0.1561
     82  C        -12.4880    5.8230   15.7630 C.2   119  VAL119      0.2260
     83  O        -12.9750    6.2850   14.7300 O.2   119  VAL119     -0.2867
     84  CB       -10.3980    4.6840   14.9720 C.3   119  VAL119      0.0252
     85  CG1       -9.5370    5.7340   15.6720 C.3   119  VAL119      0.0019
     86  CG2       -9.6690    3.3500   14.8730 C.3   119  VAL119      0.0019
     87  N         -8.5580   14.7030   14.7070 N.3   128  PHE128     -0.1241
     88  CA        -7.7640   13.5430   15.0720 C.3   128  PHE128      0.1605
     89  C         -6.3320   13.8910   15.4690 C.2   128  PHE128      0.2264
     90  O         -5.8250   13.3970   16.4810 O.2   128  PHE128     -0.2867
     91  CB        -7.7680   12.5440   13.9140 C.3   128  PHE128      0.0534
     92  CG        -7.0270   11.2720   14.2030 C.ar  128  PHE128     -0.0203
     93  CD1       -5.6500   11.1900   14.0170 C.ar  128  PHE128     -0.0042
     94  CD2       -7.7090   10.1540   14.6750 C.ar  128  PHE128     -0.0042
     95  CE1       -4.9610   10.0120   14.2940 C.ar  128  PHE128     -0.0003
     96  CE2       -7.0320    8.9750   14.9540 C.ar  128  PHE128     -0.0003
     97  CZ        -5.6570    8.9010   14.7640 C.ar  128  PHE128     -0.0000
     98  N         -8.8010    9.5380   22.0890 N.3   138  LEU138     -0.1245
     99  CA        -9.4690    8.5570   21.2400 C.3   138  LEU138      0.1561
    100  C        -10.3080    7.5370   21.9960 C.2   138  LEU138      0.2260
    101  O        -10.1100    7.3000   23.1880 O.2   138  LEU138     -0.2867
    102  CB        -8.4340    7.7910   20.4050 C.3   138  LEU138      0.0270
    103  CG        -7.4680    8.5630   19.5050 C.3   138  LEU138      0.0019
    104  CD1       -6.5350    7.5840   18.8020 C.3   138  LEU138      0.0001
    105  CD2       -8.2450    9.3670   18.4850 C.3   138  LEU138      0.0001
    106  N        -11.8110    3.6390   20.9850 N.3   140  VAL140     -0.1245
    107  CA       -11.9200    2.6040   19.9750 C.3   140  VAL140      0.1561
    108  C        -12.8950    1.5470   20.4440 C.2   140  VAL140      0.2260
    109  O        -12.7860    1.0280   21.5580 O.2   140  VAL140     -0.2867
    110  CB       -10.5610    1.9340   19.6650 C.3   140  VAL140      0.0252
    111  CG1      -10.7440    0.8930   18.5610 C.3   140  VAL140      0.0019
    112  CG2       -9.5540    2.9800   19.2210 C.3   140  VAL140      0.0019
    113  N         -2.7890    2.9030   21.0640 N.3   195  LEU195     -0.1231
    114  CA        -2.9190    2.4410   19.6940 C.3   195  LEU195      0.1693
    115  C         -2.1950    1.0940   19.7580 C.2   195  LEU195      0.2593
    116  O         -1.2070    0.9450   20.4960 O.2   195  LEU195     -0.2718
    117  CB        -2.1500    3.3570   18.7390 C.3   195  LEU195      0.0284
    118  CG        -2.8750    4.4700   17.9780 C.3   195  LEU195      0.0019
    119  CD1       -3.4810    5.4640   18.9490 C.3   195  LEU195      0.0001
    120  CD2       -1.8750    5.1710   17.0530 C.3   195  LEU195      0.0001
    121  N         -2.6610    0.1140   18.9970 N.am  196  THR196     -0.1939
    122  CA        -2.0040   -1.1880   19.0090 C.3   196  THR196      0.2028
    123  C         -0.9660   -1.2630   17.8950 C.2   196  THR196      0.2643
    124  O         -0.2910   -2.2760   17.7350 O.2   196  THR196     -0.2714
    125  CB        -3.0040   -2.3240   18.8200 C.3   196  THR196      0.1808
    126  OG1       -3.6080   -2.2070   17.5300 O.3   196  THR196     -0.2208
    127  CG2       -4.0750   -2.2750   19.8980 C.3   196  THR196      0.0379
    128  N         -0.8520   -0.1800   17.1320 N.am  197  THR197     -0.1937
    129  CA         0.1100   -0.0870   16.0370 C.3   197  THR197      0.2013
    130  C          0.9800    1.1410   16.2460 C.2   197  THR197      0.2484
    131  O          0.5400    2.1250   16.8340 O.2   197  THR197     -0.2729
    132  CB        -0.5800    0.1220   14.6710 C.3   197  THR197      0.1807
    133  OG1       -1.4050    1.2930   14.7340 O.3   197  THR197     -0.2208
    134  CG2       -1.4220   -1.0760   14.2910 C.3   197  THR197      0.0379
    135  N          2.2350    1.0970   15.7780 N.am  198  PRO198     -0.2726
    136  CA         3.0830    2.2780   15.9480 C.3   198  PRO198      0.1402
    137  C          2.2900    3.4550   15.3640 C.2   198  PRO198      0.2269
    138  O          1.5990    3.2940   14.3570 O.2   198  PRO198     -0.2865
    139  CB         4.3050    1.9320   15.1100 C.3   198  PRO198      0.0296
    140  CG         4.4300    0.4490   15.3170 C.3   198  PRO198      0.0237
    141  CD         2.9930   -0.0350   15.2140 C.3   198  PRO198      0.0939
    142  N         -5.9870    6.1660   24.0540 N.3   204  VAL204     -0.1245
    143  CA        -7.2220    5.4310   23.8500 C.3   204  VAL204      0.1561
    144  C         -8.0140    4.8950   25.0210 C.2   204  VAL204      0.2260
    145  O         -7.4600    4.2780   25.9210 O.2   204  VAL204     -0.2867
    146  CB        -6.9640    4.2190   22.9320 C.3   204  VAL204      0.0252
    147  CG1       -8.2860    3.5580   22.5620 C.3   204  VAL204      0.0019
    148  CG2       -6.2110    4.6490   21.6860 C.3   204  VAL204      0.0019
    149  N        -10.4150    2.1860   25.5780 N.3   206  TRP206     -0.1241
    150  CA       -10.8740    1.0000   24.8810 C.3   206  TRP206      0.1605
    151  C        -12.2280    0.5280   25.3840 C.2   206  TRP206      0.2264
    152  O        -12.4690    0.4670   26.5920 O.2   206  TRP206     -0.2867
    153  CB        -9.8560   -0.1410   25.0280 C.3   206  TRP206      0.0550
    154  CG        -8.7290   -0.0380   24.0520 C.ar  206  TRP206      0.0003
    155  CD1       -7.5210    0.5760   24.2380 C.ar  206  TRP206      0.0946
    156  CD2       -8.7520   -0.4760   22.6920 C.ar  206  TRP206      0.0152
    157  NE1       -6.7950    0.5530   23.0700 N.ar  206  TRP206     -0.2442
    158  CE2       -7.5290   -0.0870   22.1050 C.ar  206  TRP206      0.0810
    159  CE3       -9.6960   -1.1590   21.9080 C.ar  206  TRP206      0.0012
    160  CZ2       -7.2240   -0.3570   20.7650 C.ar  206  TRP206      0.0191
    161  CZ3       -9.3930   -1.4290   20.5790 C.ar  206  TRP206      0.0001
    162  CH2       -8.1670   -1.0270   20.0210 C.ar  206  TRP206      0.0015
@<TRIPOS>BOND
     1    15    16    1
     2    16    17    1
     3    16    19    1
     4    17    18    2
     5    36    35    2
     6    19    20    1
     7    35    34    1
     8    33    34    1
     9    23    24    1
    10    34    37    1
    11    20    21    2
    12    20    22   am
    13    37    38    1
    14    24    25    1
    15    24    27    1
    16    25    26    2
    17    38    39    2
    18    38    40   am
    19    29    31   ar
    20    29    28   ar
    21    27    28    1
    22    31    32   ar
    23    28    30   ar
    24     4     3    2
    25    45    42    1
    26    45    46    1
    27    32    30   ar
    28    54    51    1
    29    54    55    1
    30    51    50    1
    31    51    52    1
    32     1     2    1
    33    42    43    1
    34    42    41    1
    35     3     2    1
    36    46    47    1
    37    52    53    2
    38    47    49   am
    39    47    48    2
    40    43    44    2
    41     2     5    1
    42     9     7   ar
    43     9    10   ar
    44    55    56   ar
    45    55    57   ar
    46    12    10   ar
    47    12    14   ar
    48     7     6   ar
    49    10     8   ar
    50    14    13   ar
    51     6     8   ar
    52     6     5    1
    53     8    11   ar
    54    13    11   ar
    55    56    58   ar
    56    60    61    1
    57    57    59   ar
    58    62    61    1
    59    62    63    2
    60    61    64    1
    61    58    59   ar
    62    73    72    2
    63    91    92    1
    64    91    88    1
    65    64    65    1
    66    93    92   ar
    67    93    95   ar
    68    66    65   ar
    69    66    68   ar
    70    92    94   ar
    71    65    67   ar
    72   134   132    1
    73    95    97   ar
    74    68    69   ar
    75   138   137    2
    76    67    69   ar
    77   132   133    1
    78   132   129    1
    79    94    96   ar
    80    87    88    1
    81    70    71    1
    82    83    82    2
    83    97    96   ar
    84    72    71    1
    85    86    84    1
    86    84    85    1
    87    84    81    1
    88    88    89    1
    89    80    81    1
    90   139   140    1
    91   139   136    1
    92   141   140    1
    93   141   135    1
    94   137   136    1
    95    89    90    2
    96    71    74    1
    97    74    75    1
    98    81    82    1
    99   135   136    1
   100   135   130   am
   101   129   130    1
   102   129   128    1
   103   130   131    2
   104    75    76   ar
   105    75    77   ar
   106    76    78   ar
   107   120   118    1
   108   128   123   am
   109    78    79   ar
   110    77    79   ar
   111   126   125    1
   112   124   123    2
   113   123   122    1
   114   118   117    1
   115   118   119    1
   116   105   103    1
   117   111   110    1
   118   117   114    1
   119   104   103    1
   120   125   122    1
   121   125   127    1
   122   121   122    1
   123   121   115   am
   124   112   110    1
   125   103   102    1
   126   110   107    1
   127   114   115    1
   128   114   113    1
   129   115   116    2
   130   107   108    1
   131   107   106    1
   132   162   161   ar
   133   162   160   ar
   134   102    99    1
   135   108   109    2
   136   161   159   ar
   137   160   158   ar
   138    99   100    1
   139    99    98    1
   140   148   146    1
   141   159   156   ar
   142   100   101    2
   143   158   156   ar
   144   158   157   ar
   145   147   146    1
   146   156   154   ar
   147   146   143    1
   148   157   155   ar
   149   143   142    1
   150   143   144    1
   151   154   155   ar
   152   154   153    1
   153   150   153    1
   154   150   151    1
   155   150   149    1
   156   144   145    2
   157   151   152    2
