@<TRIPOS>MOLECULE
tmp/2qpjA03.pdb
 234 227 0 0 0
SMALL
GASTEIGER

@<TRIPOS>ATOM
      1  N         25.3670   58.2350   46.2150 N.3    49  ARG49      -0.1245
      2  CA        24.2980   57.2740   46.0290 C.3    49  ARG49       0.1563
      3  C         24.6880   56.0240   46.8110 C.2    49  ARG49       0.2260
      4  O         25.8710   55.7330   46.9750 O.2    49  ARG49      -0.2867
      5  CB        24.1320   56.9400   44.5480 C.3    49  ARG49       0.0307
      6  CG        23.0080   55.9610   44.2440 C.3    49  ARG49       0.0489
      7  CD        22.9990   55.4500   42.7950 C.3    49  ARG49       0.2205
      8  NE        24.0940   54.5160   42.5470 N.pl3  49  ARG49      -0.0865
      9  CZ        24.6380   54.2780   41.3580 C.cat  49  ARG49       0.5346
     10  NH1       24.2010   54.8990   40.2740 N.pl3  49  ARG49       0.1354
     11  NH2       25.6270   53.4110   41.2540 N.pl3  49  ARG49       0.1354
     12  N         23.6270   47.8960   44.8440 N.3    53  PHE53      -0.1241
     13  CA        24.5820   47.9890   43.7540 C.3    53  PHE53       0.1605
     14  C         25.9000   48.6420   44.1770 C.2    53  PHE53       0.2264
     15  O         26.9810   48.1230   43.8770 O.2    53  PHE53      -0.2867
     16  CB        23.9780   48.7770   42.5990 C.3    53  PHE53       0.0534
     17  CG        24.6810   48.5610   41.2990 C.ar   53  PHE53      -0.0203
     18  CD1       24.6050   47.3380   40.6550 C.ar   53  PHE53      -0.0042
     19  CD2       25.4280   49.5680   40.7300 C.ar   53  PHE53      -0.0042
     20  CE1       25.2620   47.1190   39.4580 C.ar   53  PHE53      -0.0003
     21  CE2       26.0780   49.3610   39.5320 C.ar   53  PHE53      -0.0003
     22  CZ        25.9940   48.1220   38.8970 C.ar   53  PHE53      -0.0000
     23  N         30.2050   47.4270   44.8830 N.3    57  ARG57      -0.1245
     24  CA        31.4000   48.1500   44.4700 C.3    57  ARG57       0.1563
     25  C         32.3270   48.4370   45.6500 C.2    57  ARG57       0.2260
     26  O         33.5400   48.2710   45.5290 O.2    57  ARG57      -0.2867
     27  CB        31.0290   49.4430   43.7490 C.3    57  ARG57       0.0307
     28  CG        30.2700   49.1970   42.4480 C.3    57  ARG57       0.0489
     29  CD        29.8710   50.4620   41.6830 C.3    57  ARG57       0.2205
     30  NE        29.4500   50.1370   40.3200 N.pl3  57  ARG57      -0.0865
     31  CZ        29.0880   51.0310   39.4070 C.cat  57  ARG57       0.5346
     32  NH1       29.0930   52.3240   39.6960 N.pl3  57  ARG57       0.1354
     33  NH2       28.7150   50.6300   38.2040 N.pl3  57  ARG57       0.1354
     34  N         29.4760   45.8470   36.6760 N.3   489  ASN489     -0.1225
     35  CA        28.6980   46.4180   35.5820 C.3   489  ASN489      0.1785
     36  C         28.7000   45.4660   34.3900 C.2   489  ASN489      0.2597
     37  O         29.3360   44.4110   34.4230 O.2   489  ASN489     -0.2718
     38  CB        29.2500   47.7800   35.1560 C.3   489  ASN489      0.1169
     39  CG        28.1510   48.7870   34.8480 C.2   489  ASN489      0.2627
     40  OD1       26.9960   48.4200   34.6480 O.2   489  ASN489     -0.2716
     41  ND2       28.5070   50.0590   34.8240 N.am  489  ASN489     -0.0877
     42  N         27.9690   45.8360   33.3480 N.am  490  ALA490     -0.1966
     43  CA        27.9700   45.0810   32.1070 C.3   490  ALA490      0.1728
     44  C         27.7520   46.0500   30.9590 C.2   490  ALA490      0.2616
     45  O         27.4260   47.2180   31.1810 O.2   490  ALA490     -0.2715
     46  CB        26.8910   44.0130   32.1390 C.3   490  ALA490      0.0334
     47  N         27.9610   45.5850   29.7340 N.am  491  PHE491     -0.1960
     48  CA        28.1620   46.4940   28.6150 C.3   491  PHE491      0.1771
     49  C         27.6580   45.8940   27.3110 C.2   491  PHE491      0.2620
     50  O         27.7290   44.6700   27.0960 O.2   491  PHE491     -0.2715
     51  CB        29.6410   46.8720   28.4780 C.3   491  PHE491      0.0574
     52  CG        30.2100   47.5420   29.6950 C.ar  491  PHE491     -0.0200
     53  CD1       29.9700   48.8870   29.9420 C.ar  491  PHE491     -0.0042
     54  CD2       30.9800   46.8270   30.5970 C.ar  491  PHE491     -0.0042
     55  CE1       30.4800   49.5050   31.0750 C.ar  491  PHE491     -0.0003
     56  CE2       31.4970   47.4420   31.7300 C.ar  491  PHE491     -0.0003
     57  CZ        31.2460   48.7810   31.9670 C.ar  491  PHE491     -0.0000
     58  N         27.1560   46.7710   26.4440 N.am  492  TYR492     -0.1960
     59  CA        27.0230   46.4840   25.0200 C.3   492  TYR492      0.1771
     60  C         27.8050   47.4900   24.1680 C.2   492  TYR492      0.2620
     61  O         27.7620   48.7070   24.4130 O.2   492  TYR492     -0.2715
     62  CB        25.5490   46.5100   24.6140 C.3   492  TYR492      0.0574
     63  CG        25.3490   46.3840   23.1210 C.ar  492  TYR492     -0.0198
     64  CD1       25.3820   45.1430   22.5070 C.ar  492  TYR492     -0.0009
     65  CD2       25.1490   47.5040   22.3230 C.ar  492  TYR492     -0.0009
     66  CE1       25.2120   45.0170   21.1530 C.ar  492  TYR492      0.0417
     67  CE2       24.9760   47.3840   20.9590 C.ar  492  TYR492      0.0417
     68  CZ        25.0140   46.1360   20.3820 C.ar  492  TYR492      0.1957
     69  OH        24.8480   45.9910   19.0310 O.3   492  TYR492     -0.2866
     70  N         28.5320   46.9700   23.1820 N.am  493  SER493     -0.1936
     71  CA        29.2080   47.7910   22.1780 C.3   493  SER493      0.2055
     72  C         28.5150   47.6480   20.8280 C.2   493  SER493      0.2644
     73  O         28.5070   46.5730   20.2370 O.2   493  SER493     -0.2714
     74  CB        30.6700   47.3660   22.0330 C.3   493  SER493      0.2130
     75  OG        31.3300   48.1230   21.0220 O.3   493  SER493     -0.2179
     76  N         27.9430   48.7400   20.3400 N.am  494  SER494     -0.1935
     77  CA        27.3930   48.7750   18.9910 C.3   494  SER494      0.2055
     78  C         28.4980   48.5970   17.9450 C.2   494  SER494      0.2643
     79  O         28.3000   47.9470   16.9190 O.2   494  SER494     -0.2714
     80  CB        26.6340   50.0880   18.7670 C.3   494  SER494      0.2130
     81  OG        27.3850   51.2010   19.2260 O.3   494  SER494     -0.2179
     82  N         29.6690   49.1540   18.2250 N.am  495  GLY495     -0.1954
     83  CA        30.7970   49.0660   17.3160 C.3   495  GLY495      0.1869
     84  C         31.3430   47.6610   17.1470 C.2   495  GLY495      0.2309
     85  O         31.8160   47.2970   16.0730 O.2   495  GLY495     -0.2863
     86  N         30.3300   41.5210   38.1930 N.3   505  ILE505     -0.1245
     87  CA        28.8740   41.5510   38.3100 C.3   505  ILE505      0.1561
     88  C         28.2800   40.1490   38.4560 C.2   505  ILE505      0.2260
     89  O         27.0800   39.9910   38.6810 O.2   505  ILE505     -0.2867
     90  CB        28.2360   42.2970   37.1150 C.3   505  ILE505      0.0252
     91  CG1       26.7980   42.6940   37.4540 C.3   505  ILE505      0.0019
     92  CG2       28.2810   41.4350   35.8430 C.3   505  ILE505      0.0019
     93  CD1       26.2440   43.7890   36.5870 C.3   505  ILE505      0.0001
     94  N         22.8890   39.0820   41.6200 N.3   510  PHE510     -0.1241
     95  CA        22.7270   38.8300   40.1890 C.3   510  PHE510      0.1605
     96  C         22.8560   37.3540   39.8720 C.2   510  PHE510      0.2264
     97  O         22.0030   36.7780   39.1970 O.2   510  PHE510     -0.2867
     98  CB        23.7670   39.5990   39.3780 C.3   510  PHE510      0.0534
     99  CG        23.6200   41.0750   39.4670 C.ar  510  PHE510     -0.0203
    100  CD1       22.6550   41.7340   38.7170 C.ar  510  PHE510     -0.0042
    101  CD2       24.4310   41.8110   40.3160 C.ar  510  PHE510     -0.0042
    102  CE1       22.5130   43.1020   38.8020 C.ar  510  PHE510     -0.0003
    103  CE2       24.2920   43.1820   40.4030 C.ar  510  PHE510     -0.0003
    104  CZ        23.3330   43.8280   39.6420 C.ar  510  PHE510     -0.0000
    105  N         18.1700   39.1890   33.5660 N.3   526  MET526     -0.1230
    106  CA        17.6320   40.4610   33.1400 C.3   526  MET526      0.1702
    107  C         18.7500   41.4110   32.6770 C.2   526  MET526      0.2592
    108  O         18.5320   42.2400   31.7980 O.2   526  MET526     -0.2718
    109  CB        16.8120   41.0700   34.2820 C.3   526  MET526      0.0401
    110  CG        16.2070   42.4250   33.9700 C.3   526  MET526      0.0596
    111  SD        17.3440   43.7680   34.3840 S.3   526  MET526     -0.1393
    112  CE        16.8030   44.9910   33.2220 C.3   526  MET526      0.0692
    113  N         19.9490   41.2810   33.2460 N.am  527  VAL527     -0.1980
    114  CA        21.0780   42.1030   32.8080 C.3   527  VAL527      0.1595
    115  C         21.5280   41.7110   31.4010 C.2   527  VAL527      0.2287
    116  O         21.7650   42.5720   30.5560 O.2   527  VAL527     -0.2864
    117  CB        22.2840   42.0150   33.7820 C.3   527  VAL527      0.0276
    118  CG1       23.4910   42.7050   33.1910 C.3   527  VAL527      0.0022
    119  CG2       21.9360   42.6430   35.1330 C.3   527  VAL527      0.0022
    120  N         19.1160   43.0910   29.0090 N.3   530  HIS530     -0.1226
    121  CA        19.3500   44.5280   28.9180 C.3   530  HIS530      0.1752
    122  C         20.4640   44.8600   27.9270 C.2   530  HIS530      0.2595
    123  O         20.2980   45.7300   27.0620 O.2   530  HIS530     -0.2718
    124  CB        19.6880   45.0820   30.3150 C.3   530  HIS530      0.0759
    125  CG        20.0880   46.5270   30.3260 C.ar  530  HIS530      0.0818
    126  ND1       19.2400   47.5300   30.7450 N.ar  530  HIS530     -0.2268
    127  CD2       21.2580   47.1310   30.0060 C.ar  530  HIS530      0.1154
    128  CE1       19.8630   48.6940   30.6550 C.ar  530  HIS530      0.1986
    129  NE2       21.0920   48.4780   30.2140 N.ar  530  HIS530     -0.2212
    130  N         21.6010   44.1740   28.0530 N.am  531  GLU531     -0.1979
    131  CA        22.7250   44.3890   27.1480 C.3   531  GLU531      0.1602
    132  C         22.3880   44.0190   25.7020 C.2   531  GLU531      0.2287
    133  O         22.7460   44.7480   24.7720 O.2   531  GLU531     -0.2864
    134  CB        23.9520   43.5970   27.5940 C.3   531  GLU531      0.0415
    135  CG        24.3640   43.8060   29.0410 C.3   531  GLU531      0.1163
    136  CD        24.3430   45.2580   29.4710 C.2   531  GLU531      0.3649
    137  OE1       24.6420   46.1430   28.6290 O.co2 531  GLU531     -0.2457
    138  OE2       24.0360   45.5130   30.6640 O.co2 531  GLU531     -0.2457
    139  N         20.1900   46.5740   24.0400 N.3   534  HIS534     -0.1241
    140  CA        20.9240   47.7700   23.6120 C.3   534  HIS534      0.1621
    141  C         21.3090   47.6970   22.1410 C.2   534  HIS534      0.2264
    142  O         21.5600   48.7170   21.5130 O.2   534  HIS534     -0.2867
    143  CB        22.2040   47.9730   24.4340 C.3   534  HIS534      0.0745
    144  CG        22.0240   48.8630   25.6250 C.ar  534  HIS534      0.0817
    145  ND1       21.1040   49.8880   25.6580 N.ar  534  HIS534     -0.2268
    146  CD2       22.6380   48.8680   26.8310 C.ar  534  HIS534      0.1154
    147  CE1       21.1670   50.4950   26.8290 C.ar  534  HIS534      0.1986
    148  NE2       22.0910   49.8960   27.5590 N.ar  534  HIS534     -0.2212
    149  N         18.1250   49.3270   20.5830 N.3   537  ASP537     -0.1239
    150  CA        17.4790   50.5260   21.1130 C.3   537  ASP537      0.1674
    151  C         17.7140   51.7000   20.1700 C.2   537  ASP537      0.2266
    152  O         18.1130   51.5020   19.0210 O.2   537  ASP537     -0.2867
    153  CB        17.9270   50.8240   22.5520 C.3   537  ASP537      0.1410
    154  CG        19.3350   51.3530   22.6410 C.2   537  ASP537      0.3668
    155  OD1       19.8720   51.8390   21.6250 O.co2 537  ASP537     -0.2456
    156  OD2       19.9870   51.3280   23.7040 O.co2 537  ASP537     -0.2456
    157  N         19.7750   53.9780   19.8810 N.3   539  ASN539     -0.1240
    158  CA        21.1210   54.0380   19.3350 C.3   539  ASN539      0.1653
    159  C         21.4560   52.7680   18.5640 C.2   539  ASN539      0.2266
    160  O         21.6800   52.8170   17.3630 O.2   539  ASN539     -0.2867
    161  CB        22.1610   54.2730   20.4360 C.3   539  ASN539      0.1155
    162  CG        23.5840   54.0600   19.9450 C.2   539  ASN539      0.2627
    163  OD1       24.1360   52.9600   20.0570 O.2   539  ASN539     -0.2716
    164  ND2       24.1790   55.1040   19.3780 N.am  539  ASN539     -0.0877
    165  N         22.9610   50.2620   14.1560 N.3   543  PHE543     -0.1241
    166  CA        24.1890   49.5730   13.7730 C.3   543  PHE543      0.1605
    167  C         23.8730   48.1430   13.3700 C.2   543  PHE543      0.2264
    168  O         22.9700   47.5210   13.9300 O.2   543  PHE543     -0.2867
    169  CB        25.2060   49.5950   14.9180 C.3   543  PHE543      0.0534
    170  CG        25.7320   50.9680   15.2350 C.ar  543  PHE543     -0.0203
    171  CD1       26.9640   51.3810   14.7530 C.ar  543  PHE543     -0.0042
    172  CD2       24.9960   51.8430   16.0140 C.ar  543  PHE543     -0.0042
    173  CE1       27.4570   52.6420   15.0430 C.ar  543  PHE543     -0.0003
    174  CE2       25.4790   53.1080   16.3100 C.ar  543  PHE543     -0.0003
    175  CZ        26.7150   53.5090   15.8230 C.ar  543  PHE543     -0.0000
    176  N         18.0320   53.2950   27.7410 N.3   593  GLU593     -0.1245
    177  CA        18.1610   52.4960   28.9600 C.3   593  GLU593      0.1567
    178  C         16.8250   51.9020   29.3900 C.2   593  GLU593      0.2260
    179  O         16.7470   50.7470   29.8240 O.2   593  GLU593     -0.2867
    180  CB        18.7400   53.3350   30.0870 C.3   593  GLU593      0.0388
    181  CG        20.1650   53.7810   29.8360 C.3   593  GLU593      0.1160
    182  CD        21.1160   52.6260   29.6190 C.2   593  GLU593      0.3649
    183  OE1       20.8650   51.5240   30.1520 O.co2 593  GLU593     -0.2457
    184  OE2       22.1250   52.8250   28.9180 O.co2 593  GLU593     -0.2457
    185  N         17.8990   44.4580   43.2530 N.3   639  VAL639     -0.1231
    186  CA        19.0980   45.0060   42.6230 C.3   639  VAL639      0.1692
    187  C         19.2120   46.5020   42.9120 C.2   639  VAL639      0.2592
    188  O         20.3110   47.0470   43.0170 O.2   639  VAL639     -0.2718
    189  CB        19.1030   44.7740   41.0970 C.3   639  VAL639      0.0266
    190  CG1       20.2110   45.5680   40.4380 C.3   639  VAL639      0.0020
    191  CG2       19.2440   43.2930   40.7800 C.3   639  VAL639      0.0020
    192  N         18.0710   47.1680   43.0510 N.am  640  TRP640     -0.1976
    193  CA        18.0430   48.6220   42.9810 C.3   640  TRP640      0.1640
    194  C         17.5760   49.2170   44.3020 C.2   640  TRP640      0.2290
    195  O         17.2770   50.4120   44.3880 O.2   640  TRP640     -0.2864
    196  CB        17.1440   49.0850   41.8330 C.3   640  TRP640      0.0576
    197  CG        17.7960   48.9280   40.5090 C.ar  640  TRP640      0.0006
    198  CD1       17.2990   48.2760   39.4150 C.ar  640  TRP640      0.0946
    199  CD2       19.0880   49.4120   40.1330 C.ar  640  TRP640      0.0152
    200  NE1       18.2010   48.3350   38.3800 N.ar  640  TRP640     -0.2442
    201  CE2       19.3110   49.0250   38.7960 C.ar  640  TRP640      0.0810
    202  CE3       20.0890   50.1360   40.7950 C.ar  640  TRP640      0.0012
    203  CZ2       20.4810   49.3380   38.1120 C.ar  640  TRP640      0.0191
    204  CZ3       21.2510   50.4480   40.1120 C.ar  640  TRP640      0.0001
    205  CH2       21.4360   50.0500   38.7840 C.ar  640  TRP640      0.0015
    206  N         22.7510   61.1400   34.0450 N.3   656  ASP656     -0.1239
    207  CA        22.6340   59.6900   33.9240 C.3   656  ASP656      0.1674
    208  C         21.5890   59.3190   32.8690 C.2   656  ASP656      0.2266
    209  O         20.4180   59.6960   32.9810 O.2   656  ASP656     -0.2867
    210  CB        22.2570   59.0730   35.2740 C.3   656  ASP656      0.1410
    211  CG        22.5540   57.5840   35.3450 C.2   656  ASP656      0.3668
    212  OD1       22.9220   56.9880   34.3090 O.co2 656  ASP656     -0.2456
    213  OD2       22.4370   56.9210   36.4030 O.co2 656  ASP656     -0.2456
    214  N         20.5720   56.4220   32.5320 N.3   658  HIS658     -0.1241
    215  CA        19.7040   55.4800   33.2390 C.3   658  HIS658      0.1621
    216  C         18.6820   56.2430   34.0620 C.2   658  HIS658      0.2264
    217  O         18.9930   57.2960   34.6130 O.2   658  HIS658     -0.2867
    218  CB        20.5110   54.5670   34.1660 C.3   658  HIS658      0.0745
    219  CG        21.6720   53.8970   33.5080 C.ar  658  HIS658      0.0817
    220  ND1       22.9380   54.4420   33.5020 N.ar  658  HIS658     -0.2268
    221  CD2       21.7680   52.7160   32.8500 C.ar  658  HIS658      0.1154
    222  CE1       23.7600   53.6330   32.8590 C.ar  658  HIS658      0.1986
    223  NE2       23.0750   52.5780   32.4540 N.ar  658  HIS658     -0.2212
    224  N         13.2830   52.6850   37.4860 N.3   664  ARG664     -0.1245
    225  CA        13.5510   51.5040   36.6650 C.3   664  ARG664      0.1563
    226  C         12.6200   50.3560   37.0240 C.2   664  ARG664      0.2260
    227  O         12.0900   49.6750   36.1500 O.2   664  ARG664     -0.2867
    228  CB        14.9990   51.0520   36.8170 C.3   664  ARG664      0.0307
    229  CG        15.9820   52.0040   36.1860 C.3   664  ARG664      0.0489
    230  CD        17.4200   51.5680   36.3130 C.3   664  ARG664      0.2205
    231  NE        17.7880   50.6640   35.2390 N.pl3 664  ARG664     -0.0865
    232  CZ        19.0350   50.4100   34.8850 C.cat 664  ARG664      0.5346
    233  NH1       20.0400   50.9960   35.5330 N.pl3 664  ARG664      0.1354
    234  NH2       19.2830   49.5640   33.8910 N.pl3 664  ARG664      0.1354
@<TRIPOS>BOND
     1   167   166    1
     2   167   168    2
     3   166   165    1
     4   166   169    1
     5   171   173   ar
     6   171   170   ar
     7   169   170    1
     8   173   175   ar
     9   170   172   ar
    10   175   174   ar
    11   172   174   ar
    12    85    84    2
    13    79    78    2
    14    84    83    1
    15    83    82    1
    16   160   159    2
    17    78    82   am
    18    78    77    1
    19   159   158    1
    20    80    77    1
    21    80    81    1
    22    77    76    1
    23   152   151    2
    24    69    68    1
    25   158   157    1
    26   158   161    1
    27   164   162   am
    28   162   163    2
    29   162   161    1
    30   151   150    1
    31    73    72    2
    32    76    72   am
    33    68    67   ar
    34    68    66   ar
    35   149   150    1
    36    72    71    1
    37    67    65   ar
    38    75    74    1
    39   150   153    1
    40    66    64   ar
    41   142   141    2
    42   155   154   ar
    43    74    71    1
    44   141   140    1
    45    71    70    1
    46    65    63   ar
    47    64    63   ar
    48   153   154    1
    49   154   156   ar
    50    63    62    1
    51    70    60   am
    52   140   139    1
    53   140   143    1
    54    60    61    2
    55    60    59    1
    56   143   144    1
    57    62    59    1
    58   133   132    2
    59    59    58    1
    60   144   145   ar
    61   144   146   ar
    62   145   147   ar
    63   132   131    1
    64    58    49   am
    65   147   148   ar
    66   146   148   ar
    67   123   122    2
    68    50    49    2
    69   131   134    1
    70   131   130    1
    71    49    48    1
    72   134   135    1
    73   176   177    1
    74   122   130   am
    75   122   121    1
    76    51    48    1
    77    51    52    1
    78    48    47    1
    79   137   136   ar
    80   184   182   ar
    81   121   120    1
    82   121   124    1
    83   177   178    1
    84   177   180    1
    85   135   136    1
    86   178   179    2
    87   136   138   ar
    88   182   181    1
    89   182   183   ar
    90    52    53   ar
    91    52    54   ar
    92    47    44   am
    93   181   180    1
    94    53    55   ar
    95   127   129   ar
    96   127   125   ar
    97   129   128   ar
    98   124   125    1
    99   125   126   ar
   100   116   115    2
   101    54    56   ar
   102   128   126   ar
   103    44    45    2
   104    44    43    1
   105    55    57   ar
   106   115   114    1
   107    56    57   ar
   108   108   107    2
   109    43    46    1
   110    43    42    1
   111   223   221   ar
   112   223   222   ar
   113   214   215    1
   114   107   106    1
   115   107   113   am
   116   114   113    1
   117   114   117    1
   118   221   219   ar
   119   222   220   ar
   120   208   209    2
   121   208   207    1
   122   106   105    1
   123   106   109    1
   124   118   117    1
   125   112   111    1
   126   215   216    1
   127   215   218    1
   128    42    36   am
   129   220   219   ar
   130   219   218    1
   131   117   119    1
   132   234   232    1
   133   207   206    1
   134   207   210    1
   135   110   109    1
   136   110   111    1
   137   216   217    2
   138   212   211   ar
   139    36    37    2
   140    36    35    1
   141    40    39    2
   142    41    39   am
   143    39    38    1
   144   232   231    2
   145   232   233    1
   146    38    35    1
   147   231   230    1
   148   210   211    1
   149   211   213   ar
   150    35    34    1
   151    92    90    1
   152   227   226    2
   153   229   230    1
   154   229   228    1
   155    93    91    1
   156   225   228    1
   157   225   226    1
   158   225   224    1
   159    90    91    1
   160    90    87    1
   161   203   205   ar
   162   203   201   ar
   163    86    87    1
   164    33    31    1
   165    87    88    1
   166   200   201   ar
   167   200   198   ar
   168    88    89    2
   169   100   102   ar
   170   100    99   ar
   171   205   204   ar
   172   201   199   ar
   173   102   104   ar
   174    22    20   ar
   175    22    21   ar
   176    97    96    2
   177    98    99    1
   178    98    95    1
   179    31    32    1
   180    31    30    2
   181   198   197   ar
   182    20    18   ar
   183    99   101   ar
   184    21    19   ar
   185   104   103   ar
   186    96    95    1
   187   204   202   ar
   188   199   197   ar
   189   199   202   ar
   190    95    94    1
   191    10     9    1
   192   101   103   ar
   193    30    29    1
   194   190   189    1
   195   197   196    1
   196    18    17   ar
   197    19    17   ar
   198   191   189    1
   199   189   186    1
   200    11     9    1
   201    17    16    1
   202     9     8    2
   203    29    28    1
   204   196   193    1
   205    28    27    1
   206     8     7    1
   207    16    13    1
   208   186   187    1
   209   186   185    1
   210     7     6    1
   211   187   188    2
   212   187   192   am
   213   193   192    1
   214   193   194    1
   215    27    24    1
   216    13    14    1
   217    13    12    1
   218    15    14    2
   219     6     5    1
   220   194   195    2
   221    24    23    1
   222    24    25    1
   223     5     2    1
   224    26    25    2
   225     2     1    1
   226     2     3    1
   227     3     4    2
