@<TRIPOS>MOLECULE
tmp/2qplA00.pdb
 83 78 0 0 0
SMALL
GASTEIGER

@<TRIPOS>ATOM
      1  N         24.7380   64.1530   46.2050 N.3   110  ALA110     -0.1231
      2  CA        24.9670   65.3680   46.9950 C.3   110  ALA110      0.1694
      3  C         24.5670   66.5710   46.1480 C.2   110  ALA110      0.2592
      4  O         24.8550   66.6190   44.9200 O.2   110  ALA110     -0.2718
      5  CB        26.4520   65.4810   47.4080 C.3   110  ALA110      0.0304
      6  N         23.8780   67.5320   46.7640 N.am  111  ALA111     -0.1966
      7  CA        23.3200   68.6630   46.0120 C.3   111  ALA111      0.1728
      8  C         23.5050   69.9820   46.7530 C.2   111  ALA111      0.2616
      9  O         23.7290   69.9950   47.9670 O.2   111  ALA111     -0.2715
     10  CB        21.8090   68.4180   45.6960 C.3   111  ALA111      0.0334
     11  N         23.4350   71.0960   46.0150 N.am  112  GLY112     -0.1955
     12  CA        23.3810   72.4280   46.6230 C.3   112  GLY112      0.1869
     13  C         21.9630   72.7810   47.0270 C.2   112  GLY112      0.2309
     14  O         21.0410   72.6120   46.2380 O.2   112  GLY112     -0.2863
     15  N         21.7760   70.3020   36.1340 N.3   189  LEU189     -0.1245
     16  CA        22.5110   71.0980   35.1440 C.3   189  LEU189      0.1561
     17  C         23.7450   70.2670   34.7730 C.2   189  LEU189      0.2260
     18  O         24.0830   69.3280   35.4940 O.2   189  LEU189     -0.2867
     19  CB        23.0000   72.3990   35.8060 C.3   189  LEU189      0.0270
     20  CG        22.1390   73.6140   36.0670 C.3   189  LEU189      0.0019
     21  CD1       20.9360   73.3290   37.0240 C.3   189  LEU189      0.0001
     22  CD2       23.0200   74.7150   36.6240 C.3   189  LEU189      0.0001
     23  N         30.6740   75.1980   39.3660 N.3   194  PHE194     -0.1227
     24  CA        29.5960   75.5620   40.2530 C.3   194  PHE194      0.1736
     25  C         28.9140   76.8440   39.6990 C.2   194  PHE194      0.2595
     26  O         29.4630   77.5460   38.8190 O.2   194  PHE194     -0.2718
     27  CB        30.1110   75.7270   41.7030 C.3   194  PHE194      0.0547
     28  CG        30.4400   74.4120   42.3950 C.ar  194  PHE194     -0.0202
     29  CD1       29.4310   73.5410   42.7920 C.ar  194  PHE194     -0.0042
     30  CD2       31.7740   74.0540   42.6680 C.ar  194  PHE194     -0.0042
     31  CE1       29.7310   72.2940   43.4240 C.ar  194  PHE194     -0.0003
     32  CE2       32.0840   72.8350   43.3200 C.ar  194  PHE194     -0.0003
     33  CZ        31.0480   71.9450   43.6860 C.ar  194  PHE194     -0.0000
     34  N         27.7230   77.1370   40.2160 N.am  195  GLU195     -0.1979
     35  CA        26.8520   78.1710   39.6730 C.3   195  GLU195      0.1602
     36  C         27.2270   79.5650   40.1170 C.2   195  GLU195      0.2287
     37  O         27.7800   79.7750   41.1850 O.2   195  GLU195     -0.2864
     38  CB        25.3940   77.9210   40.0850 C.3   195  GLU195      0.0415
     39  CG        24.7300   76.6820   39.5250 C.3   195  GLU195      0.1163
     40  CD        25.2430   75.3710   40.1340 C.2   195  GLU195      0.3649
     41  OE1       25.4600   75.3350   41.3670 O.co2 195  GLU195     -0.2457
     42  OE2       25.4350   74.3800   39.3520 O.co2 195  GLU195     -0.2457
     43  N         20.0940   71.6960   43.6410 N.3   211  VAL211     -0.1231
     44  CA        20.8230   71.6700   42.3550 C.3   211  VAL211      0.1692
     45  C         21.9740   70.6290   42.3840 C.2   211  VAL211      0.2593
     46  O         22.7550   70.5300   43.3500 O.2   211  VAL211     -0.2718
     47  CB        21.3060   73.1020   41.8890 C.3   211  VAL211      0.0266
     48  CG1       22.3000   73.7160   42.8570 C.3   211  VAL211      0.0020
     49  CG2       21.8890   73.0670   40.4490 C.3   211  VAL211      0.0020
     50  N         22.0220   69.8140   41.3390 N.am  212  GLY212     -0.1942
     51  CA        23.1290   68.8980   41.1340 C.3   212  GLY212      0.2014
     52  C         23.3880   68.6320   39.6550 C.2   212  GLY212      0.2638
     53  O         22.7540   69.2340   38.7750 O.2   212  GLY212     -0.2714
     54  N         24.3290   67.7300   39.3960 N.am  213  MET213     -0.1976
     55  CA        24.8550   67.4730   38.0650 C.3   213  MET213      0.1605
     56  C         24.6180   66.0250   37.6270 C.2   213  MET213      0.2287
     57  O         25.3230   65.5250   36.7520 O.2   213  MET213     -0.2864
     58  CB        26.3760   67.7720   38.0320 C.3   213  MET213      0.0413
     59  CG        26.7530   69.2190   38.4150 C.3   213  MET213      0.0598
     60  SD        28.5600   69.4450   38.4780 S.3   213  MET213     -0.1393
     61  CE        28.6750   71.0970   39.2110 C.3   213  MET213      0.0692
     62  N         24.8810   69.1800   51.0300 N.3   236  THR236     -0.1203
     63  CA        26.2570   69.3410   51.5110 C.3   236  THR236      0.1994
     64  C         26.7210   70.8020   51.4360 C.2   236  THR236      0.2617
     65  O         27.8070   71.1570   51.9180 O.2   236  THR236     -0.2717
     66  CB        27.2640   68.5080   50.6540 C.3   236  THR236      0.1784
     67  OG1       27.1140   68.8670   49.2820 O.3   236  THR236     -0.2211
     68  CG2       27.0360   67.0440   50.7680 C.3   236  THR236      0.0376
     69  N         25.9310   71.6460   50.7880 N.am  237  ASN237     -0.1974
     70  CA        26.1890   73.0770   50.8230 C.3   237  ASN237      0.1688
     71  C         24.9390   73.8740   50.5960 C.2   237  ASN237      0.2292
     72  O         24.0230   73.4480   49.8930 O.2   237  ASN237     -0.2864
     73  CB        27.3120   73.5160   49.8490 C.3   237  ASN237      0.1181
     74  CG        26.9200   73.3740   48.4140 C.2   237  ASN237      0.2629
     75  OD1       26.8070   74.3710   47.6660 O.2   237  ASN237     -0.2716
     76  ND2       26.6700   72.1430   48.0100 N.am  237  ASN237     -0.0877
     77  N         23.5670   77.2300   48.9810 N.3   239  VAL239     -0.1245
     78  CA        24.0700   78.1090   47.9190 C.3   239  VAL239      0.1561
     79  C         23.9200   79.6060   48.2790 C.2   239  VAL239      0.2260
     80  O         22.9620   80.0090   48.9710 O.2   239  VAL239     -0.2867
     81  CB        23.5380   77.7830   46.4710 C.3   239  VAL239      0.0252
     82  CG1       23.3940   76.2500   46.2220 C.3   239  VAL239      0.0019
     83  CG2       22.2670   78.5370   46.1680 C.3   239  VAL239      0.0019
@<TRIPOS>BOND
     1    17    16    1
     2    17    18    2
     3    16    19    1
     4    16    15    1
     5    19    20    1
     6    20    22    1
     7    20    21    1
     8    57    56    2
     9    56    55    1
    10    58    55    1
    11    58    59    1
    12    55    54    1
    13    59    60    1
    14    60    61    1
    15    53    52    2
    16    26    25    2
    17    42    40   ar
    18    23    24    1
    19    54    52   am
    20    39    38    1
    21    39    40    1
    22    52    51    1
    23    35    38    1
    24    35    36    1
    25    35    34    1
    26    25    34   am
    27    25    24    1
    28    36    37    2
    29    40    41   ar
    30    24    27    1
    31    49    47    1
    32    51    50    1
    33    50    45   am
    34    27    28    1
    35    47    44    1
    36    47    48    1
    37    44    45    1
    38    44    43    1
    39    45    46    2
    40    28    30   ar
    41    28    29   ar
    42    30    32   ar
    43    29    31   ar
    44    32    33   ar
    45    31    33   ar
    46     4     3    2
    47    10     7    1
    48     7     8    1
    49     7     6    1
    50    11    12    1
    51    11     8   am
    52     3     6   am
    53     3     2    1
    54    83    81    1
    55     1     2    1
    56    82    81    1
    57    14    13    2
    58    81    78    1
    59    12    13    1
    60     8     9    2
    61     2     5    1
    62    75    74    2
    63    78    79    1
    64    78    77    1
    65    76    74   am
    66    79    80    2
    67    74    73    1
    68    67    66    1
    69    73    70    1
    70    72    71    2
    71    71    70    1
    72    66    68    1
    73    66    63    1
    74    69    70    1
    75    69    64   am
    76    62    63    1
    77    64    63    1
    78    64    65    2
