@<TRIPOS>MOLECULE
tmp/2qpmA04.pdb
 201 190 0 0 0
SMALL
GASTEIGER

@<TRIPOS>ATOM
      1  N         25.9170    2.3100    0.9070 N.3    73  HIS73      -0.1241
      2  CA        27.2310    2.8780    0.6290 C.3    73  HIS73       0.1621
      3  C         28.1170    1.9700   -0.1860 C.2    73  HIS73       0.2264
      4  O         29.2640    2.3120   -0.4710 O.2    73  HIS73      -0.2867
      5  CB        27.9440    3.3130    1.9170 C.3    73  HIS73       0.0745
      6  CG        27.7620    4.7800    2.1280 C.ar   73  HIS73       0.0817
      7  ND1       28.6210    5.7330    1.6170 N.ar   73  HIS73      -0.2268
      8  CD2       26.6970    5.4550    2.6300 C.ar   73  HIS73       0.1154
      9  CE1       28.1250    6.9350    1.8620 C.ar   73  HIS73       0.1986
     10  NE2       26.9530    6.7930    2.4680 N.ar   73  HIS73      -0.2212
     11  N         29.8140    0.2010   -3.2640 N.3    75  LEU75      -0.1245
     12  CA        30.3630    0.8420   -4.4500 C.3    75  LEU75       0.1561
     13  C         29.9550    0.1790   -5.7540 C.2    75  LEU75       0.2260
     14  O         29.8620    0.8420   -6.7810 O.2    75  LEU75      -0.2867
     15  CB        31.8910    0.8510   -4.3660 C.3    75  LEU75       0.0270
     16  CG        32.5030    1.6570   -3.2230 C.3    75  LEU75       0.0019
     17  CD1       33.9700    1.2730   -3.0530 C.3    75  LEU75       0.0001
     18  CD2       32.3550    3.1460   -3.5130 C.3    75  LEU75       0.0001
     19  N         36.0260    5.9880    8.8720 N.3   137  ASP137     -0.1225
     20  CA        36.2680    7.4190    8.6880 C.3   137  ASP137      0.1805
     21  C         34.9890    8.2170    8.4680 C.2   137  ASP137      0.2597
     22  O         34.9540    9.4260    8.6950 O.2   137  ASP137     -0.2718
     23  CB        37.1910    7.6490    7.4900 C.3   137  ASP137      0.1424
     24  CG        38.5420    7.0050    7.6710 C.2   137  ASP137      0.3668
     25  OD1       38.9850    6.9210    8.8280 O.co2 137  ASP137     -0.2456
     26  OD2       39.1620    6.6040    6.6590 O.co2 137  ASP137     -0.2456
     27  N         33.9550    7.5270    8.0050 N.am  138  TYR138     -0.1976
     28  CA        32.6530    8.1180    7.7010 C.3   138  TYR138      0.1639
     29  C         31.6470    7.3970    8.5870 C.2   138  TYR138      0.2290
     30  O         31.5750    6.1720    8.5700 O.2   138  TYR138     -0.2864
     31  CB        32.3460    7.8720    6.2230 C.3   138  TYR138      0.0560
     32  CG        31.0170    8.3780    5.7280 C.ar  138  TYR138     -0.0198
     33  CD1       30.7920    9.7410    5.5460 C.ar  138  TYR138     -0.0009
     34  CD2       29.9990    7.4910    5.3930 C.ar  138  TYR138     -0.0009
     35  CE1       29.5830   10.2030    5.0320 C.ar  138  TYR138      0.0417
     36  CE2       28.7860    7.9420    4.8810 C.ar  138  TYR138      0.0417
     37  CZ        28.5860    9.2940    4.7010 C.ar  138  TYR138      0.1957
     38  OH        27.3930    9.7310    4.1740 O.3   138  TYR138     -0.2866
     39  N         37.1170   -0.2920    9.1220 N.3   152  ILE152     -0.1245
     40  CA        38.4490    0.1760    9.4690 C.3   152  ILE152      0.1561
     41  C         38.6110    1.6890    9.4850 C.2   152  ILE152      0.2260
     42  O         37.9440    2.4060    8.7390 O.2   152  ILE152     -0.2867
     43  CB        39.5040   -0.3740    8.4960 C.3   152  ILE152      0.0252
     44  CG1       39.2150    0.1430    7.0780 C.3   152  ILE152      0.0019
     45  CG2       39.5010   -1.9090    8.5350 C.3   152  ILE152      0.0019
     46  CD1       40.2460   -0.2690    6.0490 C.3   152  ILE152      0.0001
     47  N         48.9400   16.6260   12.0260 N.3   221  ARG221     -0.1245
     48  CA        49.3670   16.1950   10.7070 C.3   221  ARG221      0.1563
     49  C         50.8510   16.4930   10.6020 C.2   221  ARG221      0.2260
     50  O         51.3050   17.5870   10.9500 O.2   221  ARG221     -0.2867
     51  CB        48.5970   16.9060    9.5950 C.3   221  ARG221      0.0307
     52  CG        47.3230   16.1870    9.2080 C.3   221  ARG221      0.0489
     53  CD        46.6880   16.8050    7.9790 C.3   221  ARG221      0.2205
     54  NE        45.5210   16.0530    7.5310 N.pl3 221  ARG221     -0.0865
     55  CZ        45.5770   14.9220    6.8300 C.cat 221  ARG221      0.5346
     56  NH1       44.4570   14.3140    6.4690 N.pl3 221  ARG221      0.1354
     57  NH2       46.7450   14.4040    6.4760 N.pl3 221  ARG221      0.1354
     58  N         44.8110    7.2680   17.0440 N.3   248  TYR248     -0.1241
     59  CA        44.4460    7.1230   15.6460 C.3   248  TYR248      0.1605
     60  C         45.6430    7.4850   14.8010 C.2   248  TYR248      0.2264
     61  O         46.3230    8.4840   15.0590 O.2   248  TYR248     -0.2867
     62  CB        43.2770    8.0830   15.3680 C.3   248  TYR248      0.0534
     63  CG        42.9520    8.3890   13.9170 C.ar  248  TYR248     -0.0201
     64  CD1       41.8030    7.8740   13.3210 C.ar  248  TYR248     -0.0009
     65  CD2       43.7550    9.2570   13.1670 C.ar  248  TYR248     -0.0009
     66  CE1       41.4500    8.2210   12.0060 C.ar  248  TYR248      0.0417
     67  CE2       43.4120    9.6110   11.8510 C.ar  248  TYR248      0.0417
     68  CZ        42.2580    9.0900   11.2850 C.ar  248  TYR248      0.1957
     69  OH        41.8990    9.4450   10.0000 O.3   248  TYR248     -0.2866
     70  N         46.5730    7.5280   10.6010 N.3   250  GLU250     -0.1245
     71  CA        46.2590    7.3070    9.2040 C.3   250  GLU250      0.1567
     72  C         47.3190    8.0920    8.4590 C.2   250  GLU250      0.2260
     73  O         48.2540    8.6100    9.0660 O.2   250  GLU250     -0.2867
     74  CB        44.8500    7.7960    8.8370 C.3   250  GLU250      0.0388
     75  CG        43.7520    6.8950    9.4000 C.3   250  GLU250      0.1160
     76  CD        42.4320    6.9760    8.6480 C.2   250  GLU250      0.3649
     77  OE1       41.4720    6.3160    9.1060 O.co2 250  GLU250     -0.2457
     78  OE2       42.3440    7.6740    7.6060 O.co2 250  GLU250     -0.2457
     79  N         41.8980   19.2430    2.4260 N.3   266  THR266     -0.1218
     80  CA        41.9630   18.4050    3.6210 C.3   266  THR266      0.1862
     81  C         41.0660   18.9800    4.6940 C.2   266  THR266      0.2287
     82  O         40.5690   18.2560    5.5490 O.2   266  THR266     -0.2866
     83  CB        43.3870   18.3230    4.2240 C.3   266  THR266      0.1770
     84  OG1       43.8620   19.6430    4.5180 O.3   266  THR266     -0.2211
     85  CG2       44.3400   17.6280    3.2640 C.3   266  THR266      0.0375
     86  N         48.4640   11.4860    9.7300 N.3   293  GLU293     -0.1245
     87  CA        47.3950   12.1350   10.4660 C.3   293  GLU293      0.1567
     88  C         47.2400   11.2910   11.7120 C.2   293  GLU293      0.2260
     89  O         47.0140   10.0830   11.6270 O.2   293  GLU293     -0.2867
     90  CB        46.0900   12.1350    9.6780 C.3   293  GLU293      0.0388
     91  CG        44.9590   12.8150   10.4190 C.3   293  GLU293      0.1160
     92  CD        43.6340   12.6670    9.7130 C.2   293  GLU293      0.3649
     93  OE1       43.3790   11.5750    9.1470 O.co2 293  GLU293     -0.2457
     94  OE2       42.8440   13.6340    9.7400 O.co2 293  GLU293     -0.2457
     95  N         34.1520   14.1940   11.3860 N.3   339  ARG339     -0.1231
     96  CA        34.8460   15.1900   10.5750 C.3   339  ARG339      0.1694
     97  C         34.5010   15.1580    9.0830 C.2   339  ARG339      0.2591
     98  O         34.5400   16.1920    8.4170 O.2   339  ARG339     -0.2718
     99  CB        36.3620   15.0300   10.7430 C.3   339  ARG339      0.0321
    100  CG        36.8970   13.6690   10.2900 C.3   339  ARG339      0.0489
    101  CD        38.3620   13.4550   10.6900 C.3   339  ARG339      0.2205
    102  NE        38.8350   12.1370   10.2590 N.pl3 339  ARG339     -0.0865
    103  CZ        38.3610   10.9830   10.7200 C.cat 339  ARG339      0.5346
    104  NH1       37.4050   10.9670   11.6390 N.pl3 339  ARG339      0.1354
    105  NH2       38.8140    9.8370   10.2350 N.pl3 339  ARG339      0.1354
    106  N         34.1580   13.9850    8.5610 N.am  340  VAL340     -0.1980
    107  CA        33.8440   13.8500    7.1390 C.3   340  VAL340      0.1595
    108  C         32.4380   14.3110    6.7590 C.2   340  VAL340      0.2287
    109  O         32.1970   14.6920    5.6110 O.2   340  VAL340     -0.2864
    110  CB        34.0360   12.3860    6.6680 C.3   340  VAL340      0.0276
    111  CG1       33.6210   12.2370    5.2120 C.3   340  VAL340      0.0022
    112  CG2       35.4880   11.9810    6.8330 C.3   340  VAL340      0.0022
    113  N         32.2680   17.4270    4.9530 N.3   343  GLU343     -0.1245
    114  CA        32.7540   17.3250    3.5820 C.3   343  GLU343      0.1567
    115  C         31.6350   16.8470    2.6620 C.2   343  GLU343      0.2260
    116  O         31.5010   17.3280    1.5380 O.2   343  GLU343     -0.2867
    117  CB        33.9420   16.3570    3.5090 C.3   343  GLU343      0.0388
    118  CG        35.1530   16.8040    4.3240 C.3   343  GLU343      0.1160
    119  CD        36.3190   15.8210    4.2630 C.2   343  GLU343      0.3649
    120  OE1       36.7510   15.4740    3.1390 O.co2 343  GLU343     -0.2457
    121  OE2       36.8100   15.4050    5.3400 O.co2 343  GLU343     -0.2457
    122  N         36.1200    4.0060   -6.3990 N.3   359  TRP359     -0.1241
    123  CA        37.0730    3.8910   -5.3100 C.3   359  TRP359      0.1605
    124  C         37.8460    2.5870   -5.3620 C.2   359  TRP359      0.2264
    125  O         37.3110    1.5520   -5.7520 O.2   359  TRP359     -0.2867
    126  CB        36.3450    4.0000   -3.9700 C.3   359  TRP359      0.0550
    127  CG        35.8240    5.3700   -3.6840 C.ar  359  TRP359      0.0003
    128  CD1       35.9290    6.4720   -4.4850 C.ar  359  TRP359      0.0946
    129  CD2       35.2010    5.8110   -2.4770 C.ar  359  TRP359      0.0152
    130  NE1       35.4210    7.5730   -3.8440 N.ar  359  TRP359     -0.2442
    131  CE2       34.9680    7.1960   -2.6080 C.ar  359  TRP359      0.0810
    132  CE3       34.8200    5.1690   -1.2910 C.ar  359  TRP359      0.0012
    133  CZ2       34.3750    7.9530   -1.5980 C.ar  359  TRP359      0.0191
    134  CZ3       34.2300    5.9180   -0.2880 C.ar  359  TRP359      0.0001
    135  CH2       34.0130    7.2990   -0.4470 C.ar  359  TRP359      0.0015
    136  N         39.9110    0.2520   -2.8650 N.3   361  ASN361     -0.1240
    137  CA        40.2760    0.0050   -1.4760 C.3   361  ASN361      0.1653
    138  C         40.9700   -1.3400   -1.4020 C.2   361  ASN361      0.2266
    139  O         40.4380   -2.3420   -1.8720 O.2   361  ASN361     -0.2867
    140  CB        39.0240    0.0090   -0.6100 C.3   361  ASN361      0.1155
    141  CG        38.3010    1.3370   -0.6540 C.2   361  ASN361      0.2627
    142  OD1       38.7940    2.3340   -0.1400 O.2   361  ASN361     -0.2716
    143  ND2       37.1350    1.3580   -1.2840 N.am  361  ASN361     -0.0877
    144  N         40.6150   12.0190   -1.5650 N.3   389  PRO389     -0.2116
    145  CA        41.8220   11.6740   -0.8180 C.3   389  PRO389      0.1372
    146  C         42.4450   10.3260   -1.1940 C.2   389  PRO389      0.2244
    147  O         41.7670    9.4360   -1.7110 O.2   389  PRO389     -0.2868
    148  CB        41.3450   11.7220    0.6350 C.3   389  PRO389      0.0268
    149  CG        39.9120   11.2700    0.5300 C.3   389  PRO389      0.0207
    150  CD        39.4140   11.9770   -0.7130 C.3   389  PRO389      0.0892
    151  N         44.3710    7.6790    0.8300 N.3   391  ILE391     -0.1245
    152  CA        44.6500    7.3000    2.2050 C.3   391  ILE391      0.1561
    153  C         45.5010    6.0490    2.2860 C.2   391  ILE391      0.2260
    154  O         45.2280    5.0670    1.6030 O.2   391  ILE391     -0.2867
    155  CB        43.3180    7.0550    2.9330 C.3   391  ILE391      0.0252
    156  CG1       42.4360    8.3060    2.8100 C.3   391  ILE391      0.0019
    157  CG2       43.5640    6.6930    4.3890 C.3   391  ILE391      0.0019
    158  CD1       40.9620    8.0470    3.0610 C.3   391  ILE391      0.0001
    159  N         47.6950    3.7450    5.4000 N.3   393  TYR393     -0.1241
    160  CA        48.1330    3.5900    6.7800 C.3   393  TYR393      0.1605
    161  C         48.2660    2.1310    7.1370 C.2   393  TYR393      0.2264
    162  O         47.5370    1.2850    6.6300 O.2   393  TYR393     -0.2867
    163  CB        47.1910    4.3010    7.7550 C.3   393  TYR393      0.0534
    164  CG        45.7580    3.8460    7.7250 C.ar  393  TYR393     -0.0201
    165  CD1       45.3210    2.8060    8.5470 C.ar  393  TYR393     -0.0009
    166  CD2       44.8220    4.4790    6.8940 C.ar  393  TYR393     -0.0009
    167  CE1       43.9890    2.4100    8.5490 C.ar  393  TYR393      0.0417
    168  CE2       43.4930    4.0890    6.8870 C.ar  393  TYR393      0.0417
    169  CZ        43.0810    3.0530    7.7230 C.ar  393  TYR393      0.1957
    170  OH        41.7630    2.6800    7.7470 O.3   393  TYR393     -0.2866
    171  N         43.3990    3.3640    0.4450 N.3   418  SER418     -0.1217
    172  CA        42.0960    3.7610   -0.0610 C.3   418  SER418      0.1889
    173  C         42.2360    4.9580   -0.9790 C.2   418  SER418      0.2288
    174  O         42.5430    6.0580   -0.5250 O.2   418  SER418     -0.2866
    175  CB        41.1550    4.1050    1.0990 C.3   418  SER418      0.2089
    176  OG        40.8180    2.9490    1.8430 O.3   418  SER418     -0.2183
    177  N         40.2130    7.2510   -2.9600 N.3   420  LEU420     -0.1245
    178  CA        38.8230    7.6540   -3.1190 C.3   420  LEU420      0.1561
    179  C         38.5750    8.5980   -4.2770 C.2   420  LEU420      0.2260
    180  O         38.2170    9.7610   -4.0840 O.2   420  LEU420     -0.2867
    181  CB        38.3310    8.2750   -1.8170 C.3   420  LEU420      0.0270
    182  CG        38.7530    7.5200   -0.5530 C.3   420  LEU420      0.0019
    183  CD1       38.0750    8.1740    0.6470 C.3   420  LEU420      0.0001
    184  CD2       38.3590    6.0440   -0.6550 C.3   420  LEU420      0.0001
    185  N         39.2190   -4.5170   -0.4680 N.3   453  TYR453     -0.1227
    186  CA        38.3060   -4.3080    0.6490 C.3   453  TYR453      0.1736
    187  C         37.0300   -3.6480    0.1290 C.2   453  TYR453      0.2595
    188  O         37.0890   -2.7390   -0.7020 O.2   453  TYR453     -0.2718
    189  CB        38.9670   -3.4190    1.7110 C.3   453  TYR453      0.0548
    190  CG        38.0710   -3.0920    2.8860 C.ar  453  TYR453     -0.0200
    191  CD1       37.6570   -4.0880    3.7780 C.ar  453  TYR453     -0.0009
    192  CD2       37.6060   -1.7930    3.0850 C.ar  453  TYR453     -0.0009
    193  CE1       36.7930   -3.7940    4.8390 C.ar  453  TYR453      0.0417
    194  CE2       36.7470   -1.4880    4.1370 C.ar  453  TYR453      0.0417
    195  CZ        36.3420   -2.4970    5.0120 C.ar  453  TYR453      0.1957
    196  OH        35.4820   -2.1990    6.0440 O.3   453  TYR453     -0.2866
    197  N         35.8830   -4.1200    0.6120 N.am  454  ALA454     -0.1980
    198  CA        34.5860   -3.5860    0.2020 C.3   454  ALA454      0.1597
    199  C         34.4290   -3.6150   -1.3190 C.2   454  ALA454      0.2287
    200  O         33.7220   -2.7910   -1.9040 O.2   454  ALA454     -0.2864
    201  CB        34.4190   -2.1540    0.7270 C.3   454  ALA454      0.0319
@<TRIPOS>BOND
     1    14    13    2
     2   122   123    1
     3    13    12    1
     4   125   124    2
     5   124   123    1
     6   123   126    1
     7   128   130   ar
     8   128   127   ar
     9    12    15    1
    10    12    11    1
    11    15    16    1
    12   179   180    2
    13   179   178    1
    14   126   127    1
    15   130   131   ar
    16   127   129   ar
    17    18    16    1
    18    16    17    1
    19   178   177    1
    20   178   181    1
    21   136   137    1
    22   131   129   ar
    23   131   133   ar
    24   129   132   ar
    25   200   199    2
    26   139   138    2
    27   181   182    1
    28   147   146    2
    29   133   135   ar
    30   144   145    1
    31   144   150    1
    32   137   138    1
    33   137   140    1
    34   199   198    1
    35   132   134   ar
    36   143   141   am
    37   146   145    1
    38   173   174    2
    39   173   172    1
    40   145   148    1
    41   150   149    1
    42   188   187    2
    43   184   182    1
    44   141   140    1
    45   141   142    2
    46   182   183    1
    47     4     3    2
    48   185   186    1
    49   135   134   ar
    50     3     2    1
    51   172   171    1
    52   172   175    1
    53   187   197   am
    54   187   186    1
    55   198   197    1
    56   198   201    1
    57   149   148    1
    58     2     1    1
    59     2     5    1
    60   186   189    1
    61   151   152    1
    62   175   176    1
    63   116   115    2
    64   154   153    2
    65     7     9   ar
    66     7     6   ar
    67   189   190    1
    68     9    10   ar
    69     5     6    1
    70     6     8   ar
    71   152   153    1
    72   152   155    1
    73    79    80    1
    74    10     8   ar
    75   115   114    1
    76   156   155    1
    77   156   158    1
    78   190   192   ar
    79   190   191   ar
    80   155   157    1
    81   192   194   ar
    82   120   119   ar
    83    85    83    1
    84   117   114    1
    85   117   118    1
    86   114   113    1
    87    80    83    1
    88    80    81    1
    89   191   193   ar
    90   194   195   ar
    91    38    37    1
    92    83    84    1
    93   119   118    1
    94   119   121   ar
    95    81    82    2
    96    37    36   ar
    97    37    35   ar
    98   193   195   ar
    99    36    34   ar
   100   195   196    1
   101    35    33   ar
   102   111   110    1
   103    34    32   ar
   104   159   160    1
   105    33    32   ar
   106   109   108    2
   107    32    31    1
   108    46    44    1
   109    31    28    1
   110    56    55    1
   111    57    55    1
   112   162   161    2
   113    26    24   ar
   114   110   112    1
   115   110   107    1
   116   108   107    1
   117   160   161    1
   118   160   163    1
   119    55    54    2
   120   168   166   ar
   121   168   169   ar
   122   166   164   ar
   123    44    43    1
   124   107   106    1
   125    23    24    1
   126    23    20    1
   127    54    53    1
   128    78    76   ar
   129    24    25   ar
   130    28    27    1
   131    28    29    1
   132   169   170    1
   133   169   167   ar
   134   164   163    1
   135   164   165   ar
   136    53    52    1
   137    27    21   am
   138    98    97    2
   139    72    73    2
   140    72    71    1
   141    21    20    1
   142    21    22    2
   143    43    45    1
   144    43    40    1
   145   165   167   ar
   146   106    97   am
   147    30    29    2
   148    76    77   ar
   149    76    75    1
   150    20    19    1
   151    42    41    2
   152    74    71    1
   153    74    75    1
   154    97    96    1
   155    39    40    1
   156    93    92   ar
   157    71    70    1
   158    52    51    1
   159    40    41    1
   160    51    48    1
   161    90    91    1
   162    90    87    1
   163    92    94   ar
   164    92    91    1
   165    86    87    1
   166    69    68    1
   167   105   103    1
   168   102   101    1
   169   102   103    2
   170   100   101    1
   171   100    99    1
   172    87    88    1
   173    96    99    1
   174    96    95    1
   175    49    48    1
   176    49    50    2
   177    48    47    1
   178   103   104    1
   179    68    67   ar
   180    68    66   ar
   181    89    88    2
   182    67    65   ar
   183    66    64   ar
   184    65    63   ar
   185    64    63   ar
   186    63    62    1
   187    60    61    2
   188    60    59    1
   189    62    59    1
   190    59    58    1
