@<TRIPOS>MOLECULE
tmp/2qppB00.pdb
 191 179 0 0 0
SMALL
GASTEIGER

@<TRIPOS>ATOM
      1  N         47.2450   -1.7930   25.2630 N.3     5  SER5       -0.1217
      2  CA        48.5050   -1.1200   25.5890 C.3     5  SER5        0.1889
      3  C         49.5920   -1.3450   24.5390 C.2     5  SER5        0.2288
      4  O         50.3990   -0.4510   24.2800 O.2     5  SER5       -0.2866
      5  CB        49.0030   -1.5610   26.9630 C.3     5  SER5        0.2089
      6  OG        48.9350   -2.9670   27.0890 O.3     5  SER5       -0.2183
      7  N         51.0740    1.4000   21.9900 N.3     9  LYS9       -0.1245
      8  CA        52.5230    1.5930   21.8950 C.3     9  LYS9        0.1561
      9  C         52.9980    1.5190   20.4400 C.2     9  LYS9        0.2260
     10  O         53.6740    2.4330   19.9570 O.2     9  LYS9       -0.2867
     11  CB        53.2570    0.5620   22.7610 C.3     9  LYS9        0.0271
     12  CG        54.7020    0.9090   23.0920 C.3     9  LYS9        0.0035
     13  CD        55.4020   -0.2760   23.7480 C.3     9  LYS9        0.0206
     14  CE        56.9040   -0.0580   23.8600 C.3     9  LYS9        0.1093
     15  NZ        57.6050   -1.2930   24.3140 N.3     9  LYS9       -0.1314
     16  N         51.3330    4.2380   17.9010 N.3    12  THR12      -0.1218
     17  CA        51.7000    5.6420   18.0970 C.3    12  THR12       0.1862
     18  C         53.2100    5.8690   18.0060 C.2    12  THR12       0.2287
     19  O         53.6980    6.9430   18.3660 O.2    12  THR12      -0.2866
     20  CB        51.1790    6.2000   19.4470 C.3    12  THR12       0.1770
     21  OG1       51.6900    5.4110   20.5290 O.3    12  THR12      -0.2211
     22  CG2       49.6510    6.2070   19.4880 C.3    12  THR12       0.0375
     23  N         55.0050    9.4280   18.1750 N.3    16  HIS16      -0.1241
     24  CA        55.8710    9.6260   19.3390 C.3    16  HIS16       0.1621
     25  C         57.2590   10.1290   18.9330 C.2    16  HIS16       0.2264
     26  O         57.8490   10.9600   19.6240 O.2    16  HIS16      -0.2867
     27  CB        55.9850    8.3360   20.1630 C.3    16  HIS16       0.0745
     28  CG        56.6260    8.5260   21.5040 C.ar   16  HIS16       0.0817
     29  ND1       57.9930    8.5680   21.6780 N.ar   16  HIS16      -0.2268
     30  CD2       56.0860    8.6850   22.7360 C.ar   16  HIS16       0.1154
     31  CE1       58.2670    8.7480   22.9580 C.ar   16  HIS16       0.1986
     32  NE2       57.1270    8.8220   23.6220 N.ar   16  HIS16      -0.2212
     33  N         57.2530   13.7820   17.8070 N.3    19  ALA19      -0.1231
     34  CA        57.1550   14.6210   19.0010 C.3    19  ALA19       0.1694
     35  C         58.5300   14.8930   19.6130 C.2    19  ALA19       0.2591
     36  O         58.7930   15.9970   20.0920 O.2    19  ALA19      -0.2718
     37  CB        56.2280   13.9840   20.0220 C.3    19  ALA19       0.0304
     38  N         59.3980   13.8820   19.5860 N.am   20  GLU20      -0.1979
     39  CA        60.7920   14.0280   20.0170 C.3    20  GLU20       0.1602
     40  C         61.5980   14.9390   19.0860 C.2    20  GLU20       0.2287
     41  O         62.5230   15.6210   19.5310 O.2    20  GLU20      -0.2864
     42  CB        61.4820   12.6630   20.1030 C.3    20  GLU20       0.0415
     43  CG        61.0990   11.8170   21.3090 C.3    20  GLU20       0.1163
     44  CD        61.8750   10.5100   21.3710 C.2    20  GLU20       0.3649
     45  OE1       63.1170   10.5570   21.4940 O.co2  20  GLU20      -0.2457
     46  OE2       61.2420    9.4340   21.2990 O.co2  20  GLU20      -0.2457
     47  N         61.0350   20.7830   21.6410 N.3    25  VAL25      -0.1245
     48  CA        61.4800   19.6840   22.5030 C.3    25  VAL25       0.1561
     49  C         63.0070   19.5660   22.5350 C.2    25  VAL25       0.2260
     50  O         63.5930   19.3500   23.5990 O.2    25  VAL25      -0.2867
     51  CB        60.8150   18.3410   22.0880 C.3    25  VAL25       0.0252
     52  CG1       61.6450   17.1400   22.5220 C.3    25  VAL25       0.0019
     53  CG2       59.4000   18.2570   22.6480 C.3    25  VAL25       0.0019
     54  N         64.3330   22.3330   24.5420 N.3    28  PHE28      -0.1227
     55  CA        64.0150   22.0950   25.9470 C.3    28  PHE28       0.1736
     56  C         65.0310   21.1530   26.5890 C.2    28  PHE28       0.2595
     57  O         65.6570   21.5040   27.5920 O.2    28  PHE28      -0.2718
     58  CB        62.6020   21.5250   26.0910 C.3    28  PHE28       0.0547
     59  CG        62.0410   21.6410   27.4790 C.ar   28  PHE28      -0.0202
     60  CD1       61.2150   22.7070   27.8180 C.ar   28  PHE28      -0.0042
     61  CD2       62.3330   20.6850   28.4490 C.ar   28  PHE28      -0.0042
     62  CE1       60.6870   22.8230   29.1020 C.ar   28  PHE28      -0.0003
     63  CE2       61.8150   20.7920   29.7380 C.ar   28  PHE28      -0.0003
     64  CZ        60.9890   21.8630   30.0640 C.ar   28  PHE28      -0.0000
     65  N         65.1830   19.9640   26.0020 N.am   29  LEU29      -0.1980
     66  CA        66.1080   18.9370   26.4890 C.3    29  LEU29       0.1596
     67  C         67.5430   19.4470   26.6180 C.2    29  LEU29       0.2287
     68  O         68.2200   19.1660   27.6090 O.2    29  LEU29      -0.2864
     69  CB        66.0740   17.7060   25.5750 C.3    29  LEU29       0.0297
     70  CG        65.1660   16.5220   25.9230 C.3    29  LEU29       0.0022
     71  CD1       63.6890   16.8790   25.8370 C.3    29  LEU29       0.0001
     72  CD2       65.4790   15.3440   25.0100 C.3    29  LEU29       0.0001
     73  N         45.9560    8.0210   28.3300 N.3   125  TYR125     -0.1227
     74  CA        47.1640    7.2530   28.0460 C.3   125  TYR125      0.1736
     75  C         48.2510    8.1600   27.4800 C.2   125  TYR125      0.2596
     76  O         49.3590    8.2050   27.9970 O.2   125  TYR125     -0.2718
     77  CB        46.8610    6.0970   27.0750 C.3   125  TYR125      0.0548
     78  CG        48.0820    5.5530   26.3590 C.ar  125  TYR125     -0.0200
     79  CD1       48.9060    4.5960   26.9600 C.ar  125  TYR125     -0.0009
     80  CD2       48.4210    6.0060   25.0840 C.ar  125  TYR125     -0.0009
     81  CE1       50.0410    4.1080   26.3090 C.ar  125  TYR125      0.0417
     82  CE2       49.5510    5.5240   24.4240 C.ar  125  TYR125      0.0417
     83  CZ        50.3540    4.5750   25.0400 C.ar  125  TYR125      0.1957
     84  OH        51.4670    4.1020   24.3740 O.3   125  TYR125     -0.2866
     85  N         47.9110    8.8890   26.4220 N.am  126  THR126     -0.1939
     86  CA        48.8420    9.7840   25.7350 C.3   126  THR126      0.2028
     87  C         49.4850   10.7920   26.6870 C.2   126  THR126      0.2642
     88  O         50.6930   11.0340   26.6300 O.2   126  THR126     -0.2714
     89  CB        48.1250   10.5290   24.5880 C.3   126  THR126      0.1808
     90  OG1       47.6320    9.5750   23.6380 O.3   126  THR126     -0.2208
     91  CG2       49.0620   11.5010   23.8890 C.3   126  THR126      0.0379
     92  N         48.6730   11.3640   27.5690 N.am  127  ARG127     -0.1977
     93  CA        49.1580   12.3870   28.4730 C.3   127  ARG127      0.1597
     94  C         49.8740   11.8660   29.7160 C.2   127  ARG127      0.2287
     95  O         51.0410   12.1930   29.9380 O.2   127  ARG127     -0.2864
     96  CB        48.0380   13.3700   28.8240 C.3   127  ARG127      0.0334
     97  CG        48.0050   14.5570   27.8710 C.3   127  ARG127      0.0492
     98  CD        49.1800   15.4830   28.1620 C.3   127  ARG127      0.2205
     99  NE        50.0090   15.7850   26.9990 N.pl3 127  ARG127     -0.0865
    100  CZ        51.2310   16.3120   27.0710 C.cat 127  ARG127      0.5346
    101  NH1       51.7760   16.5900   28.2510 N.pl3 127  ARG127      0.1354
    102  NH2       51.9140   16.5570   25.9600 N.pl3 127  ARG127      0.1354
    103  N         50.8120    8.6830   30.7620 N.3   129  MET129     -0.1230
    104  CA        51.8890    7.7100   30.5680 C.3   129  MET129      0.1702
    105  C         53.2070    8.3920   30.2180 C.2   129  MET129      0.2592
    106  O         54.2730    7.9410   30.6440 O.2   129  MET129     -0.2718
    107  CB        51.5240    6.6770   29.4990 C.3   129  MET129      0.0401
    108  CG        50.4280    5.7050   29.9050 C.3   129  MET129      0.0596
    109  SD        50.9650    4.4910   31.1280 S.3   129  MET129     -0.1393
    110  CE        50.5930    5.3380   32.6610 C.3   129  MET129      0.0692
    111  N         53.1240    9.4820   29.4540 N.am  130  GLY130     -0.1957
    112  CA        54.2950   10.2950   29.1330 C.3   130  GLY130      0.1869
    113  C         54.8370   11.0310   30.3470 C.2   130  GLY130      0.2309
    114  O         56.0520   11.0660   30.5720 O.2   130  GLY130     -0.2863
    115  N         56.8260    8.8890   32.7060 N.3   133  SER133     -0.1202
    116  CA        58.0690    8.4400   32.0880 C.3   133  SER133      0.2020
    117  C         59.1980    9.4760   32.1800 C.2   133  SER133      0.2619
    118  O         60.2570    9.1940   32.7460 O.2   133  SER133     -0.2717
    119  CB        57.8230    8.0330   30.6320 C.3   133  SER133      0.2103
    120  OG        56.8720    6.9870   30.5510 O.3   133  SER133     -0.2182
    121  N         58.9690   10.6710   31.6390 N.am  134  GLY134     -0.1956
    122  CA        60.0180   11.6920   31.5590 C.3   134  GLY134      0.1869
    123  C         60.0160   12.7690   32.6320 C.2   134  GLY134      0.2309
    124  O         60.8530   13.6740   32.6020 O.2   134  GLY134     -0.2863
    125  N         62.8650   16.1790   33.0270 N.3   138  LEU138     -0.1245
    126  CA        62.3940   17.5170   32.6370 C.3   138  LEU138      0.1561
    127  C         62.3260   18.5090   33.8060 C.2   138  LEU138      0.2260
    128  O         62.5780   19.7030   33.6250 O.2   138  LEU138     -0.2867
    129  CB        61.0270   17.4310   31.9380 C.3   138  LEU138      0.0270
    130  CG        60.8640   16.5300   30.7040 C.3   138  LEU138      0.0019
    131  CD1       59.3880   16.2430   30.4300 C.3   138  LEU138      0.0001
    132  CD2       61.5370   17.1130   29.4650 C.3   138  LEU138      0.0001
    133  N         57.3970    3.2460   37.3750 N.3   167  GLN167     -0.1245
    134  CA        57.4200    2.0510   36.5400 C.3   167  GLN167      0.1566
    135  C         56.3160    1.0840   36.9470 C.2   167  GLN167      0.2260
    136  O         55.5730    0.5910   36.0990 O.2   167  GLN167     -0.2867
    137  CB        58.7950    1.3700   36.6010 C.3   167  GLN167      0.0367
    138  CG        59.9300    2.2050   36.0070 C.3   167  GLN167      0.0905
    139  CD        59.7310    2.5050   34.5240 C.2   167  GLN167      0.2608
    140  OE1       59.7830    1.6040   33.6840 O.2   167  GLN167     -0.2717
    141  NE2       59.5050    3.7760   34.2000 N.am  167  GLN167     -0.0878
    142  N         52.9140    2.3980   35.9930 N.3   170  LYS170     -0.1245
    143  CA        52.6840    2.2140   34.5630 C.3   170  LYS170      0.1561
    144  C         52.2020    0.7960   34.2790 C.2   170  LYS170      0.2260
    145  O         51.2210    0.6110   33.5560 O.2   170  LYS170     -0.2867
    146  CB        53.9230    2.5750   33.7370 C.3   170  LYS170      0.0271
    147  CG        54.0930    4.0880   33.5350 C.3   170  LYS170      0.0035
    148  CD        54.9870    4.4280   32.3450 C.3   170  LYS170      0.0206
    149  CE        56.4600    4.3890   32.7120 C.3   170  LYS170      0.1093
    150  NZ        57.3360    4.5490   31.5130 N.3   170  LYS170     -0.1314
    151  N         48.6390   -0.1160   32.5390 N.3   174  ARG174     -0.1245
    152  CA        48.5250   -0.9620   31.3480 C.3   174  ARG174      0.1563
    153  C         47.5710   -2.1340   31.5720 C.2   174  ARG174      0.2260
    154  O         46.7190   -2.4150   30.7290 O.2   174  ARG174     -0.2867
    155  CB        49.8920   -1.5000   30.9020 C.3   174  ARG174      0.0307
    156  CG        50.9090   -0.4460   30.5040 C.3   174  ARG174      0.0489
    157  CD        52.0380   -1.0680   29.6910 C.3   174  ARG174      0.2205
    158  NE        53.3620   -0.6510   30.1590 N.pl3 174  ARG174     -0.0865
    159  CZ        53.9750    0.4750   29.8040 C.cat 174  ARG174      0.5346
    160  NH1       53.3890    1.3210   28.9700 N.pl3 174  ARG174      0.1354
    161  NH2       55.1760    0.7590   30.2880 N.pl3 174  ARG174      0.1354
    162  N         48.3650   13.1160   19.7070 N.3   198  PHE198     -0.1241
    163  CA        49.7410   13.5130   19.4080 C.3   198  PHE198      0.1605
    164  C         49.7870   14.7060   18.4690 C.2   198  PHE198      0.2264
    165  O         50.5840   15.6220   18.6700 O.2   198  PHE198     -0.2867
    166  CB        50.5410   12.3460   18.8250 C.3   198  PHE198      0.0534
    167  CG        51.2390   11.5170   19.8620 C.ar  198  PHE198     -0.0203
    168  CD1       50.5850   10.4500   20.4790 C.ar  198  PHE198     -0.0042
    169  CD2       52.5480   11.8070   20.2340 C.ar  198  PHE198     -0.0042
    170  CE1       51.2300    9.6760   21.4460 C.ar  198  PHE198     -0.0003
    171  CE2       53.2010   11.0430   21.2000 C.ar  198  PHE198     -0.0003
    172  CZ        52.5390    9.9750   21.8090 C.ar  198  PHE198     -0.0000
    173  N         49.2420   17.7930   20.2170 N.3   201  ASN201     -0.1240
    174  CA        50.4730   18.1400   20.9300 C.3   201  ASN201      0.1653
    175  C         51.5120   18.7620   20.0040 C.2   201  ASN201      0.2266
    176  O         52.2300   19.6770   20.4020 O.2   201  ASN201     -0.2867
    177  CB        51.0530   16.9180   21.6470 C.3   201  ASN201      0.1155
    178  CG        50.2460   16.5250   22.8700 C.2   201  ASN201      0.2627
    179  OD1       50.1690   17.2750   23.8480 O.2   201  ASN201     -0.2716
    180  ND2       49.6380   15.3380   22.8240 N.am  201  ASN201     -0.0877
    181  N         53.2630   22.4620   20.1930 N.3   205  PHE205     -0.1241
    182  CA        54.7130   22.6430   20.1770 C.3   205  PHE205      0.1605
    183  C         55.1640   23.6660   19.1400 C.2   205  PHE205      0.2264
    184  O         55.9120   24.5890   19.4670 O.2   205  PHE205     -0.2867
    185  CB        55.4490   21.3140   19.9620 C.3   205  PHE205      0.0534
    186  CG        55.4030   20.3830   21.1490 C.ar  205  PHE205     -0.0203
    187  CD1       55.3890   20.8780   22.4520 C.ar  205  PHE205     -0.0042
    188  CD2       55.3990   19.0050   20.9620 C.ar  205  PHE205     -0.0042
    189  CE1       55.3530   20.0150   23.5430 C.ar  205  PHE205     -0.0003
    190  CE2       55.3640   18.1360   22.0470 C.ar  205  PHE205     -0.0003
    191  CZ        55.3440   18.6410   23.3390 C.ar  205  PHE205     -0.0000
@<TRIPOS>BOND
     1    33    34    1
     2    16    17    1
     3    18    17    1
     4    18    19    2
     5    17    20    1
     6    23    24    1
     7   164   165    2
     8   164   163    1
     9   166   163    1
    10   166   167    1
    11    25    24    1
    12    25    26    2
    13    34    35    1
    14    34    37    1
    15    40    41    2
    16    40    39    1
    17   183   184    2
    18   183   182    1
    19    24    27    1
    20   163   162    1
    21    20    22    1
    22    20    21    1
    23    38    35   am
    24    38    39    1
    25    35    36    2
    26   167   169   ar
    27   167   168   ar
    28    10     9    2
    29   185   182    1
    30   185   186    1
    31   175   176    2
    32   175   174    1
    33    39    42    1
    34    42    43    1
    35    27    28    1
    36   182   181    1
    37   173   174    1
    38   169   171   ar
    39     9     8    1
    40   168   170   ar
    41   174   177    1
    42   188   186   ar
    43   188   190   ar
    44   186   187   ar
    45   171   172   ar
    46    46    44   ar
    47    43    44    1
    48    44    45   ar
    49   170   172   ar
    50    28    29   ar
    51    28    30   ar
    52    47    48    1
    53   177   178    1
    54    29    31   ar
    55     8     7    1
    56     8    11    1
    57   190   191   ar
    58    51    48    1
    59    51    52    1
    60    51    53    1
    61   187   189   ar
    62    48    49    1
    63    49    50    2
    64    30    32   ar
    65    11    12    1
    66   180   178   am
    67   178   179    2
    68    31    32   ar
    69    12    13    1
    70   191   189   ar
    71    90    89    1
    72    13    14    1
    73    14    15    1
    74    91    89    1
    75     4     3    2
    76    84    83    1
    77    82    83   ar
    78    82    80   ar
    79     3     2    1
    80    54    55    1
    81    89    86    1
    82    72    70    1
    83    83    81   ar
    84    80    78   ar
    85     1     2    1
    86    69    70    1
    87    69    66    1
    88     2     5    1
    89    86    85    1
    90    86    87    1
    91    71    70    1
    92    55    58    1
    93    55    56    1
    94   102   100    1
    95    65    66    1
    96    65    56   am
    97    58    59    1
    98    81    79   ar
    99    78    79   ar
   100    78    77    1
   101    85    75   am
   102    66    67    1
   103    56    57    2
   104    67    68    2
   105    88    87    2
   106    87    92   am
   107     5     6    1
   108    99   100    2
   109    99    98    1
   110   100   101    1
   111    77    74    1
   112    59    60   ar
   113    59    61   ar
   114    75    76    2
   115    75    74    1
   116    92    93    1
   117    60    62   ar
   118    97    98    1
   119    97    96    1
   120    74    73    1
   121    61    63   ar
   122    93    96    1
   123    93    94    1
   124   160   159    1
   125    62    64   ar
   126   112   111    1
   127   112   113    1
   128   111   105   am
   129   132   130    1
   130   107   108    1
   131   107   104    1
   132   157   158    1
   133   157   156    1
   134    94    95    2
   135    63    64   ar
   136   159   158    2
   137   159   161    1
   138   108   109    1
   139   105   104    1
   140   105   106    2
   141   113   114    2
   142   131   130    1
   143   156   155    1
   144   120   119    1
   145   104   103    1
   146   119   116    1
   147   130   129    1
   148   154   153    2
   149   155   152    1
   150   109   110    1
   151   152   153    1
   152   152   151    1
   153   150   149    1
   154   122   121    1
   155   122   123    1
   156   121   117   am
   157   129   126    1
   158   116   117    1
   159   116   115    1
   160   117   118    2
   161   148   149    1
   162   148   147    1
   163   124   123    2
   164   126   125    1
   165   126   127    1
   166   147   146    1
   167   145   144    2
   168   128   127    2
   169   140   139    2
   170   146   143    1
   171   141   139   am
   172   144   143    1
   173   139   138    1
   174   143   142    1
   175   138   137    1
   176   136   135    2
   177   134   137    1
   178   134   135    1
   179   134   133    1
