@<TRIPOS>MOLECULE
tmp/2qpqA00.pdb
 140 134 0 0 0
SMALL
GASTEIGER

@<TRIPOS>ATOM
      1  N         15.4840    5.9560   61.5890 N.3    11  PHE11      -0.1228
      2  CA        16.5270    5.1230   60.9600 C.3    11  PHE11       0.1721
      3  C         16.6640    5.4500   59.4900 C.2    11  PHE11       0.2437
      4  O         15.7490    6.0260   58.8840 O.2    11  PHE11      -0.2733
      5  CB        16.2850    3.6220   61.2600 C.3    11  PHE11       0.0547
      6  CG        16.7970    3.2210   62.6200 C.ar   11  PHE11      -0.0202
      7  CD1       16.0610    3.5260   63.7750 C.ar   11  PHE11      -0.0042
      8  CD2       18.0620    2.6640   62.7670 C.ar   11  PHE11      -0.0042
      9  CE1       16.5610    3.2390   65.0470 C.ar   11  PHE11      -0.0003
     10  CE2       18.5700    2.3740   64.0270 C.ar   11  PHE11      -0.0003
     11  CZ        17.8170    2.6610   65.1690 C.ar   11  PHE11      -0.0000
     12  N         17.8240    5.1080   58.9020 N.am   12  PRO12      -0.2729
     13  CA        17.9950    5.5350   57.5370 C.3    12  PRO12       0.1401
     14  C         17.2890    4.6500   56.4900 C.2    12  PRO12       0.2269
     15  O         16.8490    3.5420   56.8070 O.2    12  PRO12      -0.2865
     16  CB        19.5320    5.5280   57.3640 C.3    12  PRO12       0.0296
     17  CG        20.0600    4.6300   58.3420 C.3    12  PRO12       0.0237
     18  CD        19.0140    4.3950   59.4250 C.3    12  PRO12       0.0939
     19  N         16.7240    1.8610   53.7530 N.3    14  GLY14      -0.1210
     20  CA        17.3290    0.5400   53.5430 C.3    14  GLY14       0.1956
     21  C         16.9100   -0.4330   54.6090 C.2    14  GLY14       0.2612
     22  O         17.0930   -1.6370   54.4590 O.2    14  GLY14      -0.2717
     23  N         16.3370    0.0820   55.7010 N.am   15  GLY15      -0.1942
     24  CA        15.8660   -0.7850   56.7720 C.3    15  GLY15       0.2014
     25  C         14.3390   -0.8630   56.8500 C.2    15  GLY15       0.2639
     26  O         13.6200   -0.1360   56.1390 O.2    15  GLY15      -0.2714
     27  N         13.8380   -1.7340   57.7190 N.am   16  GLY16      -0.1939
     28  CA        12.3850   -1.9530   57.8290 C.3    16  GLY16       0.2014
     29  C         11.6270   -0.7260   58.3430 C.2    16  GLY16       0.2639
     30  O         10.5020   -0.4830   57.9460 O.2    16  GLY16      -0.2714
     31  N         12.2330    0.0340   59.2570 N.am   17  THR17      -0.1950
     32  CA        11.5610    1.1950   59.8310 C.3    17  THR17       0.1897
     33  C         11.2350    2.2340   58.7390 C.2    17  THR17       0.2313
     34  O         10.1020    2.7270   58.6420 O.2    17  THR17      -0.2863
     35  CB        12.4170    1.8170   60.9620 C.3    17  THR17       0.1794
     36  OG1       12.6980    0.8020   61.9210 O.3    17  THR17      -0.2208
     37  CG2       11.6550    2.9350   61.6590 C.3    17  THR17       0.0378
     38  N         11.3920    2.0700   65.9720 N.3    67  ASN67      -0.1240
     39  CA        11.3890    0.6620   66.2800 C.3    67  ASN67       0.1653
     40  C         11.8560    0.4770   67.7270 C.2    67  ASN67       0.2266
     41  O         12.0770    1.4590   68.4420 O.2    67  ASN67      -0.2867
     42  CB        12.2350   -0.1300   65.2750 C.3    67  ASN67       0.1155
     43  CG        13.6830    0.3230   65.2420 C.2    67  ASN67       0.2627
     44  OD1       14.1560    0.8550   64.2360 O.2    67  ASN67      -0.2716
     45  ND2       14.3870    0.1020   66.3120 N.am   67  ASN67      -0.0877
     46  N         14.5630    0.0020   69.1060 N.3    69  SER69      -0.1217
     47  CA        15.7110    0.8590   69.4130 C.3    69  SER69       0.1889
     48  C         15.3120    2.0470   70.2790 C.2    69  SER69       0.2288
     49  O         16.0340    2.4220   71.1900 O.2    69  SER69      -0.2866
     50  CB        16.3590    1.3900   68.1230 C.3    69  SER69       0.2089
     51  OG        16.9620    0.3480   67.3330 O.3    69  SER69      -0.2183
     52  N         23.4790   -5.6830   63.8090 N.3   131  CYS131     -0.1235
     53  CA        23.0740   -4.5420   62.9960 C.3   131  CYS131      0.1677
     54  C         23.5400   -3.1940   63.6180 C.2   131  CYS131      0.2270
     55  O         23.3420   -2.1460   63.0230 O.2   131  CYS131     -0.2867
     56  CB        21.5150   -4.5950   62.8120 C.3   131  CYS131      0.0956
     57  SG        21.1180   -6.1240   61.8860 S.3   131  CYS131     -0.0801
     58  N         21.6080   -1.7950   69.1720 N.3   135  THR135     -0.1204
     59  CA        20.4050   -2.2290   68.4310 C.3   135  THR135      0.1979
     60  C         19.7080   -3.3870   69.1840 C.2   135  THR135      0.2460
     61  O         20.3190   -4.0540   70.0110 O.2   135  THR135     -0.2732
     62  CB        20.7060   -2.7210   66.9830 C.3   135  THR135      0.1783
     63  OG1       21.6350   -3.8260   67.0200 O.3   135  THR135     -0.2211
     64  CG2       21.2520   -1.5680   66.0980 C.3   135  THR135      0.0376
     65  N         18.4120   -3.6300   68.8850 N.am  136  PRO136     -0.2717
     66  CA        17.7510   -4.7900   69.4340 C.3   136  PRO136      0.1535
     67  C         18.5100   -6.0910   69.0650 C.2   136  PRO136      0.2598
     68  O         18.4740   -7.0630   69.8210 O.2   136  PRO136     -0.2715
     69  CB        16.3820   -4.7590   68.7200 C.3   136  PRO136      0.0310
     70  CG        16.1500   -3.2740   68.4950 C.3   136  PRO136      0.0237
     71  CD        17.5070   -2.8240   68.0470 C.3   136  PRO136      0.0939
     72  N         19.2080   -6.0840   67.9370 N.am  137  GLN137     -0.1978
     73  CA        19.9700   -7.2780   67.4680 C.3   137  GLN137      0.1601
     74  C         21.1770   -7.4790   68.3760 C.2   137  GLN137      0.2287
     75  O         21.4170   -8.5730   68.9010 O.2   137  GLN137     -0.2864
     76  CB        20.3840   -7.1080   65.9880 C.3   137  GLN137      0.0394
     77  CG        19.1880   -7.2610   65.0510 C.3   137  GLN137      0.0908
     78  CD        18.2030   -6.0880   65.1490 C.2   137  GLN137      0.2608
     79  OE1       18.6180   -4.9570   65.2560 O.2   137  GLN137     -0.2717
     80  NE2       16.8800   -6.3800   65.1490 N.am  137  GLN137     -0.0878
     81  N         24.5150   -1.4890   60.3260 N.3   159  GLY159     -0.1210
     82  CA        23.2880   -2.0050   59.7570 C.3   159  GLY159      0.1956
     83  C         23.3700   -3.4840   59.4110 C.2   159  GLY159      0.2612
     84  O         24.4410   -4.1150   59.4710 O.2   159  GLY159     -0.2717
     85  N         22.2360   -4.0320   59.0070 N.am  160  CYS160     -0.1970
     86  CA        22.1400   -5.4530   58.7480 C.3   160  CYS160      0.1712
     87  C         22.8360   -5.8660   57.4560 C.2   160  CYS160      0.2296
     88  O         23.3080   -6.9990   57.3500 O.2   160  CYS160     -0.2864
     89  CB        20.6830   -5.9450   58.7470 C.3   160  CYS160      0.0983
     90  SG        19.7650   -5.7640   60.3270 S.3   160  CYS160     -0.0798
     91  N         17.9220   -8.8590   61.5650 N.3   178  THR178     -0.1218
     92  CA        16.4840   -9.0170   61.4720 C.3   178  THR178      0.1862
     93  C         16.1910  -10.1880   60.5470 C.2   178  THR178      0.2287
     94  O         16.8980  -10.3880   59.5290 O.2   178  THR178     -0.2866
     95  CB        15.8220   -7.7690   60.8820 C.3   178  THR178      0.1770
     96  OG1       16.3190   -7.5680   59.5630 O.3   178  THR178     -0.2211
     97  CG2       16.0660   -6.5210   61.7580 C.3   178  THR178      0.0375
     98  N         13.8000  -10.3260   58.4020 N.3   180  SER180     -0.1202
     99  CA        13.5040   -9.7570   57.0850 C.3   180  SER180      0.2020
    100  C         14.7420   -9.5930   56.1750 C.2   180  SER180      0.2619
    101  O         14.6770   -9.9360   54.9800 O.2   180  SER180     -0.2717
    102  CB        12.8020   -8.4120   57.2650 C.3   180  SER180      0.2103
    103  OG        13.5480   -7.6490   58.2070 O.3   180  SER180     -0.2182
    104  N         15.8470   -9.0680   56.7310 N.am  181  SER181     -0.1951
    105  CA        17.1300   -9.0110   56.0020 C.3   181  SER181      0.1924
    106  C         17.6740  -10.3890   55.6120 C.2   181  SER181      0.2314
    107  O         18.2070  -10.5580   54.5100 O.2   181  SER181     -0.2863
    108  CB        18.2150   -8.2110   56.7590 C.3   181  SER181      0.2116
    109  OG        18.5870   -8.7860   58.0140 O.3   181  SER181     -0.2180
    110  N         11.2300   -7.1920   67.7060 N.3   223  GLN223     -0.1245
    111  CA        11.2900   -5.7670   67.4210 C.3   223  GLN223      0.1566
    112  C          9.9730   -5.2600   66.8360 C.2   223  GLN223      0.2260
    113  O          9.5050   -5.7570   65.8370 O.2   223  GLN223     -0.2867
    114  CB        12.4200   -5.4850   66.4500 C.3   223  GLN223      0.0367
    115  CG        12.5890   -4.0390   65.9700 C.3   223  GLN223      0.0905
    116  CD        13.8910   -3.8950   65.2160 C.2   223  GLN223      0.2608
    117  OE1       14.9240   -4.2990   65.7210 O.2   223  GLN223     -0.2717
    118  NE2       13.8460   -3.3920   63.9990 N.am  223  GLN223     -0.0878
    119  N          7.6200   -1.8180   65.4770 N.3   225  HIS225     -0.1241
    120  CA         7.8000   -0.7200   64.5340 C.3   225  HIS225      0.1621
    121  C          6.4930    0.0380   64.5910 C.2   225  HIS225      0.2264
    122  O          5.4290   -0.5320   64.3350 O.2   225  HIS225     -0.2867
    123  CB         8.0010   -1.2050   63.0980 C.3   225  HIS225      0.0745
    124  CG         9.1550   -2.1420   62.9250 C.ar  225  HIS225      0.0817
    125  ND1        9.0620   -3.4850   63.2230 N.ar  225  HIS225     -0.2268
    126  CD2       10.4180   -1.9380   62.4740 C.ar  225  HIS225      0.1154
    127  CE1       10.2360   -4.0600   63.0080 C.ar  225  HIS225      0.1986
    128  NE2       11.0680   -3.1500   62.5360 N.ar  225  HIS225     -0.2212
    129  N          7.8460   -9.9270   58.0560 N.3   263  TYR263     -0.1241
    130  CA         7.1710   -9.0940   59.0920 C.3   263  TYR263      0.1605
    131  C          5.8960   -9.7430   59.5580 C.2   263  TYR263      0.2264
    132  O          5.1680  -10.3650   58.7700 O.2   263  TYR263     -0.2867
    133  CB         6.8510   -7.6780   58.5880 C.3   263  TYR263      0.0534
    134  CG         8.0840   -6.8760   58.3810 C.ar  263  TYR263     -0.0201
    135  CD1        8.6680   -6.1860   59.4460 C.ar  263  TYR263     -0.0009
    136  CD2        8.7220   -6.8620   57.1480 C.ar  263  TYR263     -0.0009
    137  CE1        9.8600   -5.4760   59.2720 C.ar  263  TYR263      0.0417
    138  CE2        9.8820   -6.1750   56.9600 C.ar  263  TYR263      0.0417
    139  CZ        10.4430   -5.4660   58.0310 C.ar  263  TYR263      0.1957
    140  OH        11.6090   -4.7900   57.8500 O.3   263  TYR263     -0.2866
@<TRIPOS>BOND
     1    20    19    1
     2    20    21    1
     3    22    21    2
     4   107   106    2
     5    21    23   am
     6   101   100    2
     7   106   105    1
     8    23    24    1
     9   105   104    1
    10   105   108    1
    11    26    25    2
    12   100   104   am
    13   100    99    1
    14    14    15    2
    15    14    13    1
    16   108   109    1
    17    24    25    1
    18    25    27   am
    19   138   136   ar
    20   138   139   ar
    21    99   102    1
    22    99    98    1
    23   136   134   ar
    24   102   103    1
    25    88    87    2
    26    16    13    1
    27    16    17    1
    28    87    86    1
    29    13    12    1
    30    27    28    1
    31    28    29    1
    32   140   139    1
    33    30    29    2
    34   139   137   ar
    35   129   130    1
    36    17    18    1
    37    29    31   am
    38   134   133    1
    39   134   135   ar
    40   133   130    1
    41    34    33    2
    42    33    32    1
    43    89    86    1
    44    89    90    1
    45    86    85    1
    46   132   131    2
    47     4     3    2
    48    12    18    1
    49    12     3   am
    50    85    83   am
    51   130   131    1
    52    31    32    1
    53   137   135   ar
    54    83    84    2
    55    83    82    1
    56     3     2    1
    57    94    93    2
    58    96    95    1
    59    82    81    1
    60    32    35    1
    61    90    57    1
    62    93    92    1
    63    95    92    1
    64    95    97    1
    65     2     5    1
    66     2     1    1
    67    35    37    1
    68    35    36    1
    69     5     6    1
    70    92    91    1
    71    57    56    1
    72   126   128   ar
    73   126   124   ar
    74   128   127   ar
    75     6     8   ar
    76     6     7   ar
    77     8    10   ar
    78    56    53    1
    79   124   123    1
    80   124   125   ar
    81    53    54    1
    82    53    52    1
    83   127   125   ar
    84    55    54    2
    85   123   120    1
    86     7     9   ar
    87   118   116   am
    88    10    11   ar
    89    44    43    2
    90   122   121    2
    91   120   121    1
    92   120   119    1
    93     9    11   ar
    94    77    78    1
    95    77    76    1
    96    78    80   am
    97    78    79    2
    98   116   117    2
    99   116   115    1
   100    43    42    1
   101    43    45   am
   102    42    39    1
   103   113   112    2
   104   115   114    1
   105    38    39    1
   106    76    73    1
   107    64    62    1
   108    39    40    1
   109   114   111    1
   110   112   111    1
   111    62    63    1
   112    62    59    1
   113    51    50    1
   114   111   110    1
   115    73    72    1
   116    73    74    1
   117    40    41    2
   118    72    67   am
   119    71    70    1
   120    71    65    1
   121    50    47    1
   122    74    75    2
   123    59    58    1
   124    59    60    1
   125    70    69    1
   126    69    66    1
   127    65    60   am
   128    65    66    1
   129    67    66    1
   130    67    68    2
   131    46    47    1
   132    60    61    2
   133    47    48    1
   134    48    49    2
