@<TRIPOS>MOLECULE
tmp/2qpuC00.pdb
 108 108 0 0 0
SMALL
GASTEIGER

@<TRIPOS>ATOM
      1  N        197.5500   47.4860   68.9450 N.3   375  LYS375     -0.1245
      2  CA       197.8460   46.1240   68.5210 C.3   375  LYS375      0.1561
      3  C        196.8650   45.6760   67.4500 C.2   375  LYS375      0.2260
      4  O        195.6720   45.9700   67.5310 O.2   375  LYS375     -0.2867
      5  CB       197.7650   45.1650   69.7200 C.3   375  LYS375      0.0271
      6  CG       197.9060   43.6700   69.3910 C.3   375  LYS375      0.0035
      7  CD       196.5750   43.0230   68.9870 C.3   375  LYS375      0.0206
      8  CE       196.7220   41.5100   68.8340 C.3   375  LYS375      0.1093
      9  NZ       195.4390   40.8210   68.5030 N.3   375  LYS375     -0.1314
     10  N        195.5110   36.5000   69.8560 N.3   380  TYR380     -0.1227
     11  CA       194.7820   37.1900   70.9040 C.3   380  TYR380      0.1736
     12  C        195.6290   37.7390   72.0430 C.2   380  TYR380      0.2595
     13  O        195.5300   38.9160   72.3810 O.2   380  TYR380     -0.2718
     14  CB       193.6930   36.2870   71.4910 C.3   380  TYR380      0.0548
     15  CG       192.8660   37.0030   72.5340 C.ar  380  TYR380     -0.0200
     16  CD1      193.3110   37.1120   73.8510 C.ar  380  TYR380     -0.0009
     17  CD2      191.6850   37.6540   72.1820 C.ar  380  TYR380     -0.0009
     18  CE1      192.6080   37.8580   74.7900 C.ar  380  TYR380      0.0417
     19  CE2      190.9720   38.4050   73.1130 C.ar  380  TYR380      0.0417
     20  CZ       191.4400   38.5060   74.4120 C.ar  380  TYR380      0.1957
     21  OH       190.7570   39.2720   75.3280 O.3   380  TYR380     -0.2866
     22  N        196.4630   36.8800   72.6190 N.am  381  ASP381     -0.1960
     23  CA       197.2970   37.2370   73.7610 C.3   381  ASP381      0.1840
     24  C        198.6310   37.9350   73.4890 C.2   381  ASP381      0.2622
     25  O        199.5370   37.3470   72.9050 O.2   381  ASP381     -0.2715
     26  CB       197.5610   35.9740   74.5880 C.3   381  ASP381      0.1450
     27  CG       198.4910   36.2210   75.7590 C.2   381  ASP381      0.3671
     28  OD1      199.0030   35.2320   76.3220 O.co2 381  ASP381     -0.2456
     29  OD2      198.7050   37.3960   76.1240 O.co2 381  ASP381     -0.2456
     30  N        198.7360   39.1890   73.9300 N.am  382  VAL382     -0.1963
     31  CA       199.9670   39.9750   73.8100 C.3   382  VAL382      0.1727
     32  C        200.1060   40.7910   75.0980 C.2   382  VAL382      0.2616
     33  O        200.9340   41.6980   75.1960 O.2   382  VAL382     -0.2715
     34  CB       199.9360   40.9560   72.6020 C.3   382  VAL382      0.0290
     35  CG1      199.8450   40.1820   71.2970 C.3   382  VAL382      0.0023
     36  CG2      198.7650   41.9230   72.7420 C.3   382  VAL382      0.0023
     37  N        199.2880   40.4440   76.0870 N.am  383  GLY383     -0.1955
     38  CA       199.2870   41.1470   77.3590 C.3   383  GLY383      0.1869
     39  C        200.6300   41.4580   77.9950 C.2   383  GLY383      0.2309
     40  O        200.8510   42.5760   78.4520 O.2   383  GLY383     -0.2863
     41  N        193.2290   49.0240   78.4590 N.3   392  THR392     -0.1218
     42  CA       192.4960   48.9980   77.1960 C.3   392  THR392      0.1862
     43  C        191.4710   50.1260   77.1080 C.2   392  THR392      0.2287
     44  O        190.7060   50.3620   78.0450 O.2   392  THR392     -0.2866
     45  CB       191.7780   47.6510   77.0020 C.3   392  THR392      0.1770
     46  OG1      192.7270   46.5850   77.1350 O.3   392  THR392     -0.2211
     47  CG2      191.1490   47.5810   75.6190 C.3   392  THR392      0.0375
     48  N        188.6260   48.4160   71.4380 N.3   395  HIS395     -0.1226
     49  CA       188.9900   47.1440   70.8480 C.3   395  HIS395      0.1752
     50  C        187.9040   46.6410   69.9170 C.2   395  HIS395      0.2597
     51  O        186.7570   47.0900   69.9710 O.2   395  HIS395     -0.2718
     52  CB       189.2910   46.1140   71.9490 C.3   395  HIS395      0.0759
     53  CG       188.1550   45.8770   72.8960 C.ar  395  HIS395      0.0818
     54  ND1      187.1230   45.0070   72.6190 N.ar  395  HIS395     -0.2268
     55  CD2      187.8910   46.3970   74.1180 C.ar  395  HIS395      0.1154
     56  CE1      186.2730   44.9990   73.6300 C.ar  395  HIS395      0.1986
     57  NE2      186.7150   45.8340   74.5530 N.ar  395  HIS395     -0.2212
     58  N        188.2900   45.7200   69.0450 N.am  396  GLY396     -0.1942
     59  CA       187.3560   45.1500   68.0980 C.3   396  GLY396      0.2014
     60  C        187.9940   43.9270   67.4780 C.2   396  GLY396      0.2639
     61  O        188.9370   43.3620   68.0390 O.2   396  GLY396     -0.2714
     62  N        187.5040   43.5310   66.3110 N.am  397  ASN397     -0.1958
     63  CA       188.0320   42.3530   65.6360 C.3   397  ASN397      0.1819
     64  C        189.5100   42.4850   65.2850 C.2   397  ASN397      0.2621
     65  O        189.8860   43.2410   64.3930 O.2   397  ASN397     -0.2715
     66  CB       187.2380   42.0680   64.3630 C.3   397  ASN397      0.1195
     67  CG       187.5810   40.7250   63.7640 C.2   397  ASN397      0.2630
     68  OD1      187.3030   39.6830   64.3570 O.2   397  ASN397     -0.2716
     69  ND2      188.1990   40.7380   62.5920 N.am  397  ASN397     -0.0877
     70  N        190.3390   41.7340   66.0010 N.am  398  ASP398     -0.1957
     71  CA       191.7800   41.7120   65.7920 C.3   398  ASP398      0.1840
     72  C        192.5350   43.0240   65.9870 C.2   398  ASP398      0.2622
     73  O        193.5510   43.2660   65.3340 O.2   398  ASP398     -0.2715
     74  CB       192.1090   41.1140   64.4180 C.3   398  ASP398      0.1450
     75  CG       191.8760   39.6100   64.3680 C.2   398  ASP398      0.3671
     76  OD1      191.7030   39.0020   65.4460 O.co2 398  ASP398     -0.2456
     77  OD2      191.8790   39.0350   63.2560 O.co2 398  ASP398     -0.2456
     78  N        192.0370   43.8710   66.8810 N.am  399  TYR399     -0.1960
     79  CA       192.7240   45.1210   67.1940 C.3   399  TYR399      0.1771
     80  C        192.3370   45.6050   68.5840 C.2   399  TYR399      0.2619
     81  O        191.2480   45.3150   69.0750 O.2   399  TYR399     -0.2715
     82  CB       192.4220   46.2210   66.1640 C.3   399  TYR399      0.0574
     83  CG       191.1210   46.9770   66.3780 C.ar  399  TYR399     -0.0198
     84  CD1      189.9350   46.5570   65.7740 C.ar  399  TYR399     -0.0009
     85  CD2      191.0840   48.1270   67.1710 C.ar  399  TYR399     -0.0009
     86  CE1      188.7440   47.2690   65.9490 C.ar  399  TYR399      0.0417
     87  CE2      189.8970   48.8440   67.3550 C.ar  399  TYR399      0.0417
     88  CZ       188.7330   48.4100   66.7400 C.ar  399  TYR399      0.1957
     89  OH       187.5590   49.1210   66.9120 O.3   399  TYR399     -0.2866
     90  N        193.2470   46.3340   69.2170 N.am  400  ALA400     -0.1977
     91  CA       193.0080   46.8850   70.5450 C.3   400  ALA400      0.1597
     92  C        193.9050   48.0980   70.7260 C.2   400  ALA400      0.2287
     93  O        194.9830   48.1730   70.1430 O.2   400  ALA400     -0.2864
     94  CB       193.3070   45.8380   71.6200 C.3   400  ALA400      0.0319
     95  N        195.3570   50.9230   73.8180 N.3   402  TRP402     -0.1241
     96  CA       195.4920   51.2190   75.2440 C.3   402  TRP402      0.1605
     97  C        195.8800   52.6840   75.4390 C.2   402  TRP402      0.2264
     98  O        196.5140   53.2810   74.5760 O.2   402  TRP402     -0.2867
     99  CB       196.6030   50.3700   75.8790 C.3   402  TRP402      0.0550
    100  CG       196.3600   48.8900   75.9800 C.ar  402  TRP402      0.0003
    101  CD1      196.0870   48.1840   77.1170 C.ar  402  TRP402      0.0946
    102  CD2      196.4620   47.9260   74.9240 C.ar  402  TRP402      0.0152
    103  NE1      196.0220   46.8400   76.8360 N.ar  402  TRP402     -0.2442
    104  CE2      196.2480   46.6540   75.4980 C.ar  402  TRP402      0.0810
    105  CE3      196.7170   48.0130   73.5490 C.ar  402  TRP402      0.0012
    106  CZ2      196.2810   45.4750   74.7430 C.ar  402  TRP402      0.0191
    107  CZ3      196.7490   46.8410   72.7960 C.ar  402  TRP402      0.0001
    108  CH2      196.5310   45.5880   73.4000 C.ar  402  TRP402      0.0015
@<TRIPOS>BOND
     1    69    67   am
     2    77    75   ar
     3    67    68    2
     4    67    66    1
     5    66    63    1
     6    75    74    1
     7    75    76   ar
     8    65    64    2
     9    74    71    1
    10    64    63    1
    11    64    70   am
    12    73    72    2
    13    63    62    1
    14    84    86   ar
    15    84    83   ar
    16    71    72    1
    17    71    70    1
    18    86    88   ar
    19    72    78   am
    20    82    83    1
    21    82    79    1
    22    62    60   am
    23    83    85   ar
    24    88    89    1
    25    88    87   ar
    26    78    79    1
    27    85    87   ar
    28    79    80    1
    29     3     4    2
    30     3     2    1
    31    60    61    2
    32    60    59    1
    33    59    58    1
    34     9     8    1
    35     2     1    1
    36     2     5    1
    37    80    81    2
    38    80    90   am
    39     8     7    1
    40     7     6    1
    41    58    50   am
    42    90    91    1
    43     6     5    1
    44    10    11    1
    45    50    51    2
    46    50    49    1
    47    93    92    2
    48    91    92    1
    49    91    94    1
    50    49    48    1
    51    49    52    1
    52    11    14    1
    53    11    12    1
    54    35    34    1
    55    14    15    1
    56    52    53    1
    57    12    13    2
    58    12    22   am
    59    17    15   ar
    60    17    19   ar
    61    15    16   ar
    62    34    36    1
    63    34    31    1
    64    54    53   ar
    65    54    56   ar
    66    22    23    1
    67   107   108   ar
    68   107   105   ar
    69    53    55   ar
    70    25    24    2
    71    19    20   ar
    72   108   106   ar
    73    24    23    1
    74    24    30   am
    75   105   102   ar
    76    56    57   ar
    77    23    26    1
    78    31    30    1
    79    31    32    1
    80    95    96    1
    81    16    18   ar
    82    55    57   ar
    83    20    18   ar
    84    20    21    1
    85    98    97    2
    86    26    27    1
    87   106   104   ar
    88   102   104   ar
    89   102   100   ar
    90    32    33    2
    91    32    37   am
    92    96    97    1
    93    96    99    1
    94   104   103   ar
    95    47    45    1
    96    27    29   ar
    97    27    28   ar
    98    99   100    1
    99   100   101   ar
   100    37    38    1
   101   103   101   ar
   102    45    46    1
   103    45    42    1
   104    43    42    1
   105    43    44    2
   106    42    41    1
   107    38    39    1
   108    39    40    2
