@<TRIPOS>MOLECULE
tmp/2qpuB00.pdb
 141 141 0 0 0
SMALL
GASTEIGER

@<TRIPOS>ATOM
      1  N        198.8110    3.9230   57.2080 N.3   375  LYS375     -0.1245
      2  CA       198.3280    2.6320   57.6780 C.3   375  LYS375      0.1561
      3  C        199.2820    2.0710   58.7210 C.2   375  LYS375      0.2260
      4  O        200.4950    2.1880   58.5740 O.2   375  LYS375     -0.2867
      5  CB       198.2240    1.6420   56.5070 C.3   375  LYS375      0.0271
      6  CG       197.9320    0.1850   56.9020 C.3   375  LYS375      0.0035
      7  CD       199.2090   -0.6120   57.1820 C.3   375  LYS375      0.0206
      8  CE       198.9080   -2.0940   57.3830 C.3   375  LYS375      0.1093
      9  NZ       200.1480   -2.9280   57.4490 N.3   375  LYS375     -0.1314
     10  N        199.6530   -5.1180   61.7180 N.3   378  PRO378     -0.2116
     11  CA       200.2600   -6.3250   61.1470 C.3   378  PRO378      0.1372
     12  C        199.6910   -6.8230   59.8210 C.2   378  PRO378      0.2244
     13  O        200.3860   -7.5110   59.0730 O.2   378  PRO378     -0.2868
     14  CB       200.0910   -7.3480   62.2640 C.3   378  PRO378      0.0268
     15  CG       198.7790   -6.9630   62.8530 C.3   378  PRO378      0.0207
     16  CD       198.8920   -5.4490   62.9370 C.3   378  PRO378      0.0892
     17  N        199.2340   -7.1580   56.2780 N.3   380  TYR380     -0.1227
     18  CA       200.0270   -6.6280   55.1790 C.3   380  TYR380      0.1736
     19  C        199.2420   -5.9320   54.0720 C.2   380  TYR380      0.2595
     20  O        199.6190   -4.8450   53.6390 O.2   380  TYR380     -0.2718
     21  CB       200.8820   -7.7250   54.5430 C.3   380  TYR380      0.0548
     22  CG       201.7130   -7.1980   53.3930 C.ar  380  TYR380     -0.0200
     23  CD1      202.7740   -6.3210   53.6220 C.ar  380  TYR380     -0.0009
     24  CD2      201.3970   -7.5180   52.0730 C.ar  380  TYR380     -0.0009
     25  CE1      203.4980   -5.7730   52.5660 C.ar  380  TYR380      0.0417
     26  CE2      202.1150   -6.9730   51.0080 C.ar  380  TYR380      0.0417
     27  CZ       203.1620   -6.1010   51.2640 C.ar  380  TYR380      0.1957
     28  OH       203.8640   -5.5470   50.2180 O.3   380  TYR380     -0.2866
     29  N        198.1510   -6.5440   53.6220 N.am  381  ASP381     -0.1960
     30  CA       197.3720   -5.9810   52.5240 C.3   381  ASP381      0.1840
     31  C        196.1550   -5.1220   52.8620 C.2   381  ASP381      0.2622
     32  O        195.2210   -5.5710   53.5270 O.2   381  ASP381     -0.2715
     33  CB       196.9400   -7.1080   51.5840 C.3   381  ASP381      0.1450
     34  CG       196.0350   -6.6230   50.4760 C.2   381  ASP381      0.3671
     35  OD1      196.4360   -5.6970   49.7390 O.co2 381  ASP381     -0.2456
     36  OD2      194.9210   -7.1720   50.3420 O.co2 381  ASP381     -0.2456
     37  N        196.1800   -3.8840   52.3740 N.am  382  VAL382     -0.1963
     38  CA       195.0910   -2.9260   52.5640 C.3   382  VAL382      0.1727
     39  C        194.9560   -2.1310   51.2660 C.2   382  VAL382      0.2616
     40  O        194.4370   -1.0160   51.2510 O.2   382  VAL382     -0.2715
     41  CB       195.3850   -1.9380   53.7210 C.3   382  VAL382      0.0290
     42  CG1      195.4330   -2.6810   55.0430 C.3   382  VAL382      0.0023
     43  CG2      196.7060   -1.2100   53.4680 C.3   382  VAL382      0.0023
     44  N        195.4260   -2.7210   50.1710 N.am  383  GLY383     -0.1955
     45  CA       195.3730   -2.0460   48.8870 C.3   383  GLY383      0.1869
     46  C        193.9880   -1.6360   48.4200 C.2   383  GLY383      0.2309
     47  O        193.8290   -0.6020   47.7710 O.2   383  GLY383     -0.2863
     48  N        192.8710    1.8490   49.7060 N.3   386  ILE386     -0.1245
     49  CA       193.6710    3.0090   49.3300 C.3   386  ILE386      0.1561
     50  C        192.9980    3.7600   48.1840 C.2   386  ILE386      0.2260
     51  O        192.7750    3.2010   47.1110 O.2   386  ILE386     -0.2867
     52  CB       195.0850    2.5870   48.8850 C.3   386  ILE386      0.0252
     53  CG1      195.7880    1.8450   50.0260 C.3   386  ILE386      0.0019
     54  CG2      195.8800    3.8080   48.4440 C.3   386  ILE386      0.0019
     55  CD1      195.9420    2.6580   51.3030 C.3   386  ILE386      0.0001
     56  N        196.8820    7.7100   45.0390 N.3   390  PHE390     -0.1227
     57  CA       197.8810    7.6240   46.0990 C.3   390  PHE390      0.1736
     58  C        198.9910    6.6180   45.8190 C.2   390  PHE390      0.2595
     59  O        198.7390    5.5120   45.3370 O.2   390  PHE390     -0.2718
     60  CB       197.2210    7.2790   47.4400 C.3   390  PHE390      0.0547
     61  CG       196.5020    8.4330   48.0790 C.ar  390  PHE390     -0.0202
     62  CD1      195.1860    8.7310   47.7390 C.ar  390  PHE390     -0.0042
     63  CD2      197.1500    9.2350   49.0170 C.ar  390  PHE390     -0.0042
     64  CE1      194.5240    9.8120   48.3240 C.ar  390  PHE390     -0.0003
     65  CE2      196.4990   10.3170   49.6070 C.ar  390  PHE390     -0.0003
     66  CZ       195.1820   10.6060   49.2600 C.ar  390  PHE390     -0.0000
     67  N        200.2220    7.0150   46.1270 N.am  391  VAL391     -0.1966
     68  CA       201.3860    6.1610   45.9250 C.3   391  VAL391      0.1727
     69  C        202.2550    6.1540   47.1820 C.2   391  VAL391      0.2616
     70  O        202.4650    7.1920   47.8080 O.2   391  VAL391     -0.2715
     71  CB       202.2300    6.6460   44.7260 C.3   391  VAL391      0.0290
     72  CG1      201.4330    6.5030   43.4380 C.3   391  VAL391      0.0023
     73  CG2      202.6390    8.0940   44.9300 C.3   391  VAL391      0.0023
     74  N        202.7540    4.9770   47.5480 N.am  392  THR392     -0.1951
     75  CA       203.5900    4.8350   48.7370 C.3   392  THR392      0.1897
     76  C        204.8160    5.7410   48.6850 C.2   392  THR392      0.2313
     77  O        205.5230    5.7830   47.6800 O.2   392  THR392     -0.2863
     78  CB       204.0590    3.3730   48.9120 C.3   392  THR392      0.1794
     79  OG1      202.9240    2.5000   48.8590 O.3   392  THR392     -0.2208
     80  CG2      204.7550    3.1920   50.2530 C.3   392  THR392      0.0378
     81  N        207.6250    3.7460   54.2910 N.3   395  HIS395     -0.1226
     82  CA       207.1440    2.5130   54.9020 C.3   395  HIS395      0.1752
     83  C        208.1890    1.8610   55.7980 C.2   395  HIS395      0.2597
     84  O        209.3850    2.1390   55.6880 O.2   395  HIS395     -0.2718
     85  CB       206.6890    1.5270   53.8190 C.3   395  HIS395      0.0759
     86  CG       207.7530    1.1800   52.8240 C.ar  395  HIS395      0.0818
     87  ND1      208.7900    0.3180   53.1100 N.ar  395  HIS395     -0.2268
     88  CD2      207.9450    1.5870   51.5480 C.ar  395  HIS395      0.1154
     89  CE1      209.5740    0.2090   52.0530 C.ar  395  HIS395      0.1986
     90  NE2      209.0830    0.9700   51.0910 N.ar  395  HIS395     -0.2212
     91  N        207.7140    1.0000   56.6910 N.am  396  GLY396     -0.1942
     92  CA       208.5870    0.3010   57.6140 C.3   396  GLY396      0.2014
     93  C        207.8380   -0.8440   58.2600 C.2   396  GLY396      0.2639
     94  O        206.8360   -1.3160   57.7190 O.2   396  GLY396     -0.2714
     95  N        208.3080   -1.2900   59.4200 N.am  397  ASN397     -0.1958
     96  CA       207.6640   -2.3940   60.1200 C.3   397  ASN397      0.1819
     97  C        206.2430   -2.0690   60.5570 C.2   397  ASN397      0.2621
     98  O        206.0250   -1.2760   61.4700 O.2   397  ASN397     -0.2715
     99  CB       208.4940   -2.8100   61.3370 C.3   397  ASN397      0.1195
    100  CG       209.8550   -3.3490   60.9500 C.2   397  ASN397      0.2630
    101  OD1      209.9630   -4.2610   60.1250 O.2   397  ASN397     -0.2716
    102  ND2      210.9050   -2.7900   61.5430 N.am  397  ASN397     -0.0877
    103  N        205.2850   -2.6990   59.8880 N.am  398  ASP398     -0.1957
    104  CA       203.8670   -2.5260   60.1680 C.3   398  ASP398      0.1840
    105  C        203.3060   -1.1150   60.0200 C.2   398  ASP398      0.2622
    106  O        202.4070   -0.7180   60.7640 O.2   398  ASP398     -0.2715
    107  CB       203.5220   -3.0780   61.5550 C.3   398  ASP398      0.1450
    108  CG       203.7150   -4.5830   61.6460 C.2   398  ASP398      0.3671
    109  OD1      203.5970   -5.2600   60.6040 O.co2 398  ASP398     -0.2456
    110  OD2      203.9700   -5.0880   62.7600 O.co2 398  ASP398     -0.2456
    111  N        203.8480   -0.3540   59.0760 N.am  399  TYR399     -0.1960
    112  CA       203.3340    0.9810   58.7880 C.3   399  TYR399      0.1771
    113  C        203.7070    1.3930   57.3640 C.2   399  TYR399      0.2619
    114  O        204.7130    0.9370   56.8070 O.2   399  TYR399     -0.2715
    115  CB       203.8340    2.0340   59.7980 C.3   399  TYR399      0.0574
    116  CG       205.2190    2.5880   59.5340 C.ar  399  TYR399     -0.0198
    117  CD1      206.3450    2.0190   60.1240 C.ar  399  TYR399     -0.0009
    118  CD2      205.4030    3.6810   58.6900 C.ar  399  TYR399     -0.0009
    119  CE1      207.6210    2.5260   59.8790 C.ar  399  TYR399      0.0417
    120  CE2      206.6750    4.1950   58.4370 C.ar  399  TYR399      0.0417
    121  CZ       207.7770    3.6120   59.0350 C.ar  399  TYR399      0.1957
    122  OH       209.0380    4.1130   58.7930 O.3   399  TYR399     -0.2866
    123  N        202.8690    2.2300   56.7670 N.am  400  ALA400     -0.1977
    124  CA       203.1070    2.7170   55.4160 C.3   400  ALA400      0.1597
    125  C        202.3680    4.0310   55.2170 C.2   400  ALA400      0.2287
    126  O        201.3120    4.2540   55.8100 O.2   400  ALA400     -0.2864
    127  CB       202.6370    1.6890   54.3870 C.3   400  ALA400      0.0319
    128  N        201.1730    6.9890   52.1260 N.3   402  TRP402     -0.1241
    129  CA       200.9580    7.2900   50.7100 C.3   402  TRP402      0.1605
    130  C        200.7140    8.7830   50.5440 C.2   402  TRP402      0.2264
    131  O        200.1980    9.4390   51.4500 O.2   402  TRP402     -0.2867
    132  CB       199.7110    6.5790   50.1760 C.3   402  TRP402      0.0550
    133  CG       199.7630    5.0920   50.0910 C.ar  402  TRP402      0.0003
    134  CD1      199.8970    4.3410   48.9580 C.ar  402  TRP402      0.0946
    135  CD2      199.5770    4.1650   51.1670 C.ar  402  TRP402      0.0152
    136  NE1      199.7950    3.0030   49.2610 N.ar  402  TRP402     -0.2442
    137  CE2      199.5990    2.8670   50.6090 C.ar  402  TRP402      0.0810
    138  CE3      199.3880    4.3050   52.5500 C.ar  402  TRP402      0.0012
    139  CZ2      199.4400    1.7150   51.3860 C.ar  402  TRP402      0.0191
    140  CZ3      199.2290    3.1610   53.3210 C.ar  402  TRP402      0.0001
    141  CH2      199.2560    1.8800   52.7360 C.ar  402  TRP402      0.0015
@<TRIPOS>BOND
     1    72    71    1
     2    71    73    1
     3    71    68    1
     4    56    57    1
     5    59    58    2
     6    58    57    1
     7    58    67   am
     8    68    67    1
     9    68    69    1
    10    57    60    1
    11    51    50    2
    12    69    74   am
    13    69    70    2
    14    60    61    1
    15    74    75    1
    16    77    76    2
    17    62    61   ar
    18    62    64   ar
    19    47    46    2
    20    61    63   ar
    21    50    49    1
    22    64    66   ar
    23    46    45    1
    24    54    52    1
    25    76    75    1
    26    75    78    1
    27    79    78    1
    28    52    49    1
    29    52    53    1
    30    45    44    1
    31    78    80    1
    32   134   136   ar
    33   134   133   ar
    34    63    65   ar
    35    66    65   ar
    36   136   137   ar
    37    49    48    1
    38    35    34   ar
    39    53    55    1
    40   133   132    1
    41   133   135   ar
    42    44    39   am
    43   132   129    1
    44    28    27    1
    45    36    34   ar
    46    34    33    1
    47   130   129    1
    48   130   131    2
    49   137   135   ar
    50   137   139   ar
    51   129   128    1
    52    26    27   ar
    53    26    24   ar
    54    90    88   ar
    55    90    89   ar
    56   135   138   ar
    57    40    39    2
    58    27    25   ar
    59    39    38    1
    60   139   141   ar
    61    88    86   ar
    62    33    30    1
    63    89    87   ar
    64    24    22   ar
    65    37    38    1
    66    37    31   am
    67    30    31    1
    68    30    29    1
    69   138   140   ar
    70    38    41    1
    71    25    23   ar
    72   141   140   ar
    73    86    87   ar
    74    86    85    1
    75    31    32    2
    76    22    23   ar
    77    22    21    1
    78    43    41    1
    79    29    19   am
    80    20    19    2
    81    41    42    1
    82    85    82    1
    83    19    18    1
    84    81    82    1
    85   127   124    1
    86    21    18    1
    87    82    83    1
    88    18    17    1
    89   125   124    1
    90   125   126    2
    91   124   123    1
    92    84    83    2
    93    83    91   am
    94     5     6    1
    95     5     2    1
    96    91    92    1
    97   123   113   am
    98   114   113    2
    99     6     7    1
   100     7     8    1
   101     1     2    1
   102   113   112    1
   103     8     9    1
   104    92    93    1
   105     2     3    1
   106    94    93    2
   107    93    95   am
   108   120   118   ar
   109   120   121   ar
   110     4     3    2
   111   118   116   ar
   112   112   111    1
   113   112   115    1
   114   122   121    1
   115   121   119   ar
   116    13    12    2
   117   111   105   am
   118    95    96    1
   119   116   115    1
   120   116   117   ar
   121    12    11    1
   122   119   117   ar
   123   103   104    1
   124   103    97   am
   125   105   104    1
   126   105   106    2
   127    96    97    1
   128    96    99    1
   129   101   100    2
   130   104   107    1
   131    97    98    2
   132   109   108   ar
   133   100    99    1
   134   100   102   am
   135    11    10    1
   136    11    14    1
   137   107   108    1
   138   108   110   ar
   139    10    16    1
   140    14    15    1
   141    15    16    1
