@<TRIPOS>MOLECULE
tmp/2qpyA00.pdb
 145 137 0 0 0
SMALL
GASTEIGER

@<TRIPOS>ATOM
      1  N         30.1340    9.6340    9.9560 N.3    42  LEU42      -0.1231
      2  CA        30.3880    9.3230   11.3510 C.3    42  LEU42       0.1693
      3  C         30.9160   10.5300   12.1210 C.2    42  LEU42       0.2591
      4  O         30.5080   10.7800   13.2720 O.2    42  LEU42      -0.2718
      5  CB        31.3950    8.1620   11.4660 C.3    42  LEU42       0.0284
      6  CG        31.8190    7.7520   12.8790 C.3    42  LEU42       0.0019
      7  CD1       30.5930    7.4570   13.7300 C.3    42  LEU42       0.0001
      8  CD2       32.7200    6.5440   12.7990 C.3    42  LEU42       0.0001
      9  N         31.8180   11.2750   11.4860 N.am   43  VAL43      -0.1980
     10  CA        32.3920   12.4610   12.1240 C.3    43  VAL43       0.1595
     11  C         31.3310   13.5090   12.4380 C.2    43  VAL43       0.2287
     12  O         31.4360   14.2200   13.4200 O.2    43  VAL43      -0.2864
     13  CB        33.4800   13.0950   11.2290 C.3    43  VAL43       0.0276
     14  CG1       33.9820   14.3820   11.8510 C.3    43  VAL43       0.0022
     15  CG2       34.6320   12.1220   11.0390 C.3    43  VAL43       0.0022
     16  N         29.0650   12.4060   15.4920 N.3    46  VAL46      -0.1231
     17  CA        29.7460   12.6300   16.7550 C.3    46  VAL46       0.1692
     18  C         29.5160   14.0680   17.2110 C.2    46  VAL46       0.2591
     19  O         29.2030   14.3180   18.3780 O.2    46  VAL46      -0.2718
     20  CB        31.2660   12.3690   16.6380 C.3    46  VAL46       0.0266
     21  CG1       31.9500   12.6360   17.9650 C.3    46  VAL46       0.0020
     22  CG2       31.5170   10.9390   16.2040 C.3    46  VAL46       0.0020
     23  N         29.6820   15.0070   16.2920 N.am   47  LYS47      -0.1980
     24  CA        29.4690   16.4190   16.6030 C.3    47  LYS47       0.1596
     25  C         27.9960   16.6540   16.9220 C.2    47  LYS47       0.2287
     26  O         27.6560   17.2810   17.9170 O.2    47  LYS47      -0.2864
     27  CB        29.8790   17.2810   15.4160 C.3    47  LYS47       0.0298
     28  CG        31.3120   17.1010   14.9760 C.3    47  LYS47       0.0038
     29  CD        31.6340   17.9950   13.7740 C.3    47  LYS47       0.0206
     30  CE        33.1180   17.9090   13.4090 C.3    47  LYS47       0.1093
     31  NZ        33.5230   19.0230   12.5020 N.3    47  LYS47      -0.1314
     32  N         27.1030   15.2690   20.3720 N.3    50  LYS50      -0.1245
     33  CA        27.5800   16.1130   21.4690 C.3    50  LYS50       0.1561
     34  C         26.6510   17.3160   21.6780 C.2    50  LYS50       0.2260
     35  O         26.3560   17.6940   22.8170 O.2    50  LYS50      -0.2867
     36  CB        28.9900   16.6140   21.1870 C.3    50  LYS50       0.0271
     37  CG        30.0300   15.5140   21.0150 C.3    50  LYS50       0.0035
     38  CD        31.4410   16.0660   21.1720 C.3    50  LYS50       0.0206
     39  CE        31.7180   17.2290   20.2160 C.3    50  LYS50       0.1093
     40  NZ        33.0290   17.8840   20.5060 N.3    50  LYS50      -0.1314
     41  N         23.1830   14.8720   26.2800 N.3    55  PHE55      -0.1227
     42  CA        24.1910   13.9140   25.8480 C.3    55  PHE55       0.1736
     43  C         25.5150   14.1110   26.6000 C.2    55  PHE55       0.2595
     44  O         26.2110   13.1410   26.9280 O.2    55  PHE55      -0.2718
     45  CB        24.4410   14.0510   24.3430 C.3    55  PHE55       0.0547
     46  CG        25.2350   12.9180   23.7640 C.ar   55  PHE55      -0.0202
     47  CD1       24.6330   11.6910   23.5300 C.ar   55  PHE55      -0.0042
     48  CD2       26.5930   13.0770   23.4700 C.ar   55  PHE55      -0.0042
     49  CE1       25.3770   10.6270   22.9930 C.ar   55  PHE55      -0.0003
     50  CE2       27.3400   12.0210   22.9330 C.ar   55  PHE55      -0.0003
     51  CZ        26.7190   10.7920   22.6970 C.ar   55  PHE55      -0.0000
     52  N         25.8420   15.3700   26.8720 N.am   56  ARG56      -0.1980
     53  CA        27.0910   15.7140   27.5600 C.3    56  ARG56       0.1597
     54  C         27.1200   15.2020   28.9960 C.2    56  ARG56       0.2287
     55  O         28.1830   14.8540   29.5010 O.2    56  ARG56      -0.2864
     56  CB        27.2940   17.2340   27.5450 C.3    56  ARG56       0.0334
     57  CG        28.6600   17.6620   27.0600 C.3    56  ARG56       0.0492
     58  CD        28.9350   17.1410   25.6570 C.3    56  ARG56       0.2205
     59  NE        30.2980   17.4220   25.2040 N.pl3  56  ARG56      -0.0865
     60  CZ        30.6350   18.4510   24.4260 C.cat  56  ARG56       0.5346
     61  NH1       29.7070   19.3160   23.9990 N.pl3  56  ARG56       0.1354
     62  NH2       31.8970   18.6180   24.0640 N.pl3  56  ARG56       0.1354
     63  N         31.2590    9.5410   29.6380 N.3    60  VAL60      -0.1231
     64  CA        32.0690    9.5350   28.4270 C.3    60  VAL60       0.1692
     65  C         32.1470    8.1550   27.7740 C.2    60  VAL60       0.2592
     66  O         32.1940    8.0480   26.5480 O.2    60  VAL60      -0.2718
     67  CB        33.5070   10.0290   28.7160 C.3    60  VAL60       0.0266
     68  CG1       34.1410    9.1620   29.8010 C.3    60  VAL60       0.0020
     69  CG2       34.3380    9.9870   27.4440 C.3    60  VAL60       0.0020
     70  N         32.1600    7.1020   28.5900 N.am   61  ASP61      -0.1974
     71  CA        32.2230    5.7460   28.0660 C.3    61  ASP61       0.1709
     72  C         30.9410    5.3610   27.3450 C.2    61  ASP61       0.2293
     73  O         30.9760    4.7130   26.3010 O.2    61  ASP61      -0.2864
     74  CB        32.5010    4.7440   29.1890 C.3    61  ASP61       0.1436
     75  CG        33.9390    4.8050   29.6850 C.2    61  ASP61       0.3671
     76  OD1       34.8530    4.9390   28.8350 O.co2  61  ASP61      -0.2456
     77  OD2       34.1540    4.7000   30.9160 O.co2  61  ASP61      -0.2456
     78  N         28.8770    7.4910   26.0300 N.3    63  GLN63      -0.1231
     79  CA        28.7560    8.3830   24.8830 C.3    63  GLN63       0.1698
     80  C         29.3400    7.7140   23.6460 C.2    63  GLN63       0.2592
     81  O         28.7230    7.6900   22.5870 O.2    63  GLN63      -0.2718
     82  CB        29.4930    9.7010   25.1430 C.3    63  GLN63       0.0381
     83  CG        28.8340   10.6060   26.1500 C.3    63  GLN63       0.0905
     84  CD        29.5410   11.9530   26.2600 C.2    63  GLN63       0.2608
     85  OE1       29.8750   12.5690   25.2530 O.2    63  GLN63      -0.2717
     86  NE2       29.7570   12.4180   27.4850 N.am   63  GLN63      -0.0878
     87  N         30.5380    7.1690   23.7960 N.am   64  MET64      -0.1979
     88  CA        31.2180    6.4960   22.6940 C.3    64  MET64       0.1605
     89  C         30.5780    5.1420   22.4070 C.2    64  MET64       0.2287
     90  O         30.6840    4.6210   21.3020 O.2    64  MET64      -0.2864
     91  CB        32.7010    6.3180   23.0350 C.3    64  MET64       0.0413
     92  CG        33.5610    5.8950   21.8500 C.3    64  MET64       0.0598
     93  SD        35.3270    6.0920   22.1910 S.3    64  MET64      -0.1393
     94  CE        35.6950    4.5300   23.0080 C.3    64  MET64       0.0692
     95  N         27.0310    5.6670   20.5240 N.3    67  ILE67      -0.1231
     96  CA        27.3570    6.1240   19.1820 C.3    67  ILE67       0.1692
     97  C         27.8530    4.9800   18.3070 C.2    67  ILE67       0.2591
     98  O         27.5310    4.9130   17.1140 O.2    67  ILE67      -0.2718
     99  CB        28.4520    7.2280   19.2120 C.3    67  ILE67       0.0266
    100  CG1       27.8400    8.5500   19.6620 C.3    67  ILE67       0.0019
    101  CG2       29.1050    7.3760   17.8460 C.3    67  ILE67       0.0020
    102  CD1       28.8560    9.6600   19.8350 C.3    67  ILE67       0.0001
    103  N         28.6380    4.0810   18.8960 N.am   68  GLN68      -0.1979
    104  CA        29.1800    2.9430   18.1810 C.3    68  GLN68       0.1601
    105  C         28.1710    1.8190   17.9610 C.2    68  GLN68       0.2287
    106  O         28.4670    0.8520   17.2600 O.2    68  GLN68      -0.2864
    107  CB        30.3980    2.4000   18.9140 C.3    68  GLN68       0.0394
    108  CG        31.6690    3.2210   18.7020 C.3    68  GLN68       0.0908
    109  CD        32.7540    2.8970   19.7190 C.2    68  GLN68       0.2608
    110  OE1       33.9100    3.2830   19.5500 O.2    68  GLN68      -0.2717
    111  NE2       32.3800    2.2040   20.7870 N.am   68  GLN68      -0.0878
    112  N         39.7460    3.7890    8.9670 N.3   223  GLU223     -0.1231
    113  CA        40.1880    3.4300   10.3100 C.3   223  GLU223      0.1699
    114  C         39.0280    3.1680   11.2740 C.2   223  GLU223      0.2592
    115  O         38.8290    2.0380   11.7220 O.2   223  GLU223     -0.2718
    116  CB        41.1040    4.5260   10.8700 C.3   223  GLU223      0.0402
    117  CG        41.6930    4.1980   12.2330 C.3   223  GLU223      0.1161
    118  CD        42.9900    4.9470   12.4990 C.2   223  GLU223      0.3649
    119  OE1       43.6310    4.6810   13.5490 O.co2 223  GLU223     -0.2457
    120  OE2       43.3730    5.7990   11.6560 O.co2 223  GLU223     -0.2457
    121  N         38.2710    4.2180   11.5910 N.am  224  MET224     -0.1979
    122  CA        37.1460    4.0840   12.5090 C.3   224  MET224      0.1605
    123  C         36.1660    2.9940   12.0820 C.2   224  MET224      0.2287
    124  O         35.7120    2.1940   12.9080 O.2   224  MET224     -0.2864
    125  CB        36.3980    5.4140   12.6520 C.3   224  MET224      0.0413
    126  CG        37.1320    6.4620   13.4660 C.3   224  MET224      0.0598
    127  SD        36.0570    7.8450   13.9140 S.3   224  MET224     -0.1393
    128  CE        35.7920    8.6000   12.2980 C.3   224  MET224      0.0692
    129  N         37.4650   -0.4580   12.8210 N.3   227  GLU227     -0.1231
    130  CA        37.6180   -0.6870   14.2520 C.3   227  GLU227      0.1699
    131  C         36.2720   -0.9340   14.9390 C.2   227  GLU227      0.2592
    132  O         36.1610   -1.8000   15.8120 O.2   227  GLU227     -0.2718
    133  CB        38.3200    0.5050   14.8910 C.3   227  GLU227      0.0402
    134  CG        39.2050    0.1390   16.0720 C.3   227  GLU227      0.1161
    135  CD        40.1010    1.2950   16.5150 C.2   227  GLU227      0.3649
    136  OE1       39.6290    2.1610   17.2920 O.co2 227  GLU227     -0.2457
    137  OE2       41.2740    1.3440   16.0590 O.co2 227  GLU227     -0.2457
    138  N         35.2500   -0.1750   14.5440 N.am  228  ILE228     -0.1980
    139  CA        33.9240   -0.3250   15.1300 C.3   228  ILE228      0.1595
    140  C         33.2500   -1.6060   14.6410 C.2   228  ILE228      0.2287
    141  O         32.5770   -2.2980   15.4020 O.2   228  ILE228     -0.2864
    142  CB        33.0170    0.8720   14.7860 C.3   228  ILE228      0.0276
    143  CG1       33.5440    2.1390   15.4620 C.3   228  ILE228      0.0022
    144  CG2       31.5890    0.5950   15.2350 C.3   228  ILE228      0.0022
    145  CD1       32.7710    3.4130   15.1020 C.3   228  ILE228      0.0001
@<TRIPOS>BOND
     1   112   113    1
     2     1     2    1
     3   113   116    1
     4   113   114    1
     5   116   117    1
     6    15    13    1
     7    13    14    1
     8    13    10    1
     9   114   121   am
    10   114   115    2
    11     2     5    1
    12     2     3    1
    13     5     6    1
    14     9     3   am
    15     9    10    1
    16   121   122    1
    17   120   118   ar
    18   123   122    1
    19   123   124    2
    20     3     4    2
    21    10    11    1
    22   117   118    1
    23   128   127    1
    24    11    12    2
    25   118   119   ar
    26    31    30    1
    27   122   125    1
    28   125   126    1
    29     8     6    1
    30   129   130    1
    31     6     7    1
    32    30    29    1
    33   126   127    1
    34    29    28    1
    35   130   133    1
    36   130   131    1
    37   138   131   am
    38   138   139    1
    39   140   139    1
    40   140   141    2
    41   142   139    1
    42   142   144    1
    43   142   143    1
    44   133   134    1
    45   131   132    2
    46    28    27    1
    47   145   143    1
    48    27    24    1
    49    16    17    1
    50   137   135   ar
    51   134   135    1
    52    22    20    1
    53    23    24    1
    54    23    18   am
    55   135   136   ar
    56    24    25    1
    57    20    17    1
    58    20    21    1
    59    17    18    1
    60    25    26    2
    61    98    97    2
    62    18    19    2
    63   106   105    2
    64   101    99    1
    65   105   104    1
    66   104   103    1
    67   104   107    1
    68    97   103   am
    69    97    96    1
    70   108   107    1
    71   108   109    1
    72    96    99    1
    73    96    95    1
    74    99   100    1
    75   110   109    2
    76   100   102    1
    77   109   111   am
    78    39    40    1
    79    39    38    1
    80    32    33    1
    81    37    38    1
    82    37    36    1
    83    36    33    1
    84    90    89    2
    85    33    34    1
    86    34    35    2
    87    92    93    1
    88    92    91    1
    89    93    94    1
    90    89    88    1
    91    81    80    2
    92    88    91    1
    93    88    87    1
    94    51    50   ar
    95    51    49   ar
    96    50    48   ar
    97    49    47   ar
    98    48    46   ar
    99    47    46   ar
   100    80    87   am
   101    80    79    1
   102    46    45    1
   103    61    60    1
   104    62    60    1
   105    45    42    1
   106    60    59    2
   107    79    82    1
   108    79    78    1
   109    82    83    1
   110    59    58    1
   111    85    84    2
   112    58    57    1
   113    42    41    1
   114    42    43    1
   115    83    84    1
   116    84    86   am
   117    73    72    2
   118    66    65    2
   119    43    52   am
   120    43    44    2
   121    52    53    1
   122    57    56    1
   123    72    71    1
   124    69    67    1
   125    56    53    1
   126    53    54    1
   127    65    64    1
   128    65    70   am
   129    71    70    1
   130    71    74    1
   131    64    67    1
   132    64    63    1
   133    67    68    1
   134    76    75   ar
   135    54    55    2
   136    74    75    1
   137    75    77   ar
