@<TRIPOS>MOLECULE
tmp/2qq0A01.pdb
 158 153 0 0 0
SMALL
GASTEIGER

@<TRIPOS>ATOM
      1  N         11.7680   48.1730   14.8300 N.3    11  MET11      -0.1230
      2  CA        13.1740   48.4690   14.5720 C.3    11  MET11       0.1702
      3  C         13.5530   48.0290   13.1470 C.2    11  MET11       0.2592
      4  O         13.0190   47.0550   12.6150 O.2    11  MET11      -0.2718
      5  CB        14.0560   47.7730   15.6140 C.3    11  MET11       0.0401
      6  CG        13.8210   48.3610   16.9910 C.3    11  MET11       0.0596
      7  SD        14.8540   47.7320   18.3240 S.3    11  MET11      -0.1393
      8  CE        16.5350   48.1360   17.8430 C.3    11  MET11       0.0692
      9  N         14.5030   48.7730   12.6060 N.am   12  TYR12      -0.1962
     10  CA        15.1540   48.4570   11.3220 C.3    12  TYR12       0.1771
     11  C         14.2340   48.6720   10.1590 C.2    12  TYR12       0.2620
     12  O         14.4710   48.1610    9.0770 O.2    12  TYR12      -0.2715
     13  CB        15.7440   47.0200   11.2880 C.3    12  TYR12       0.0574
     14  CG        16.3710   46.6170   12.5970 C.ar   12  TYR12      -0.0198
     15  CD1       17.4060   47.3430   13.1550 C.ar   12  TYR12      -0.0009
     16  CD2       15.8730   45.5080   13.2840 C.ar   12  TYR12      -0.0009
     17  CE1       17.9450   46.9380   14.4120 C.ar   12  TYR12       0.0417
     18  CE2       16.4040   45.1000   14.5200 C.ar   12  TYR12       0.0417
     19  CZ        17.4370   45.8180   15.0560 C.ar   12  TYR12       0.1957
     20  OH        17.9600   45.4430   16.2750 O.3    12  TYR12      -0.2866
     21  N         13.1940   49.4940   10.3470 N.am   13  SER13      -0.1936
     22  CA        12.1920   49.6850    9.2720 C.3    13  SER13       0.2055
     23  C         12.4750   50.9550    8.4470 C.2    13  SER13       0.2644
     24  O         11.7230   51.2850    7.5140 O.2    13  SER13      -0.2714
     25  CB        10.7940   49.7090    9.9000 C.3    13  SER13       0.2130
     26  OG        10.6720   50.7640   10.8240 O.3    13  SER13      -0.2179
     27  N         13.5510   51.6460    8.7760 N.am   14  GLY14      -0.1939
     28  CA        13.9910   52.8070    8.0280 C.3    14  GLY14       0.2014
     29  C         13.4610   54.1380    8.5300 C.2    14  GLY14       0.2639
     30  O         13.4500   55.1290    7.7950 O.2    14  GLY14      -0.2714
     31  N         13.0890   54.1840    9.8120 N.am   15  LYS15      -0.1963
     32  CA        12.4680   55.3640   10.3440 C.3    15  LYS15       0.1728
     33  C         13.4930   56.5100   10.4000 C.2    15  LYS15       0.2617
     34  O         13.2030   57.6500    9.9870 O.2    15  LYS15      -0.2715
     35  CB        11.9430   55.0960   11.7470 C.3    15  LYS15       0.0311
     36  CG        10.8910   53.9930   11.8380 C.3    15  LYS15       0.0038
     37  CD        10.3150   53.9500   13.2600 C.3    15  LYS15       0.0206
     38  CE        11.3330   53.5780   14.3260 C.3    15  LYS15       0.1093
     39  NZ        12.0100   52.2560   14.0610 N.3    15  LYS15      -0.1314
     40  N         14.6770   56.2480   10.9420 N.am   16  THR16      -0.1937
     41  CA        15.6820   57.3090   10.9990 C.3    16  THR16       0.2028
     42  C         16.1410   57.7580    9.5970 C.2    16  THR16       0.2642
     43  O         16.3130   58.9470    9.3300 O.2    16  THR16      -0.2714
     44  CB        16.8540   56.8130   11.8320 C.3    16  THR16       0.1808
     45  OG1       16.3800   56.6550   13.1710 O.3    16  THR16      -0.2208
     46  CG2       18.0120   57.8270   11.7920 C.3    16  THR16       0.0379
     47  N         16.3020   56.7800    8.7070 N.am   17  THR17      -0.1950
     48  CA        16.6650   57.0730    7.3340 C.3    17  THR17       0.1897
     49  C         15.6510   58.0430    6.7100 C.2    17  THR17       0.2313
     50  O         16.0300   59.0410    6.1110 O.2    17  THR17      -0.2863
     51  CB        16.7700   55.7790    6.5110 C.3    17  THR17       0.1794
     52  OG1       17.8340   54.9220    7.0150 O.3    17  THR17      -0.2208
     53  CG2       16.9770   56.0610    5.0100 C.3    17  THR17       0.0378
     54  N         21.8570   58.4180   14.0410 N.3    43  VAL43      -0.1231
     55  CA        22.5050   57.3980   13.2280 C.3    43  VAL43       0.1692
     56  C         21.5160   56.3140   12.8260 C.2    43  VAL43       0.2593
     57  O         20.7720   55.7970   13.6710 O.2    43  VAL43      -0.2718
     58  CB        23.7010   56.7850   13.9770 C.3    43  VAL43       0.0266
     59  CG1       24.3930   55.7050   13.1520 C.3    43  VAL43       0.0020
     60  CG2       24.7170   57.8930   14.2650 C.3    43  VAL43       0.0020
     61  N         21.5120   55.9930   11.5320 N.am   44  SER44      -0.1938
     62  CA        20.6770   54.9230   10.9870 C.3    44  SER44       0.2055
     63  C         21.4260   53.5740   11.0010 C.2    44  SER44       0.2643
     64  O         22.6570   53.5410   11.0960 O.2    44  SER44      -0.2714
     65  CB        20.2330   55.2780    9.5690 C.3    44  SER44       0.2130
     66  OG        21.3030   55.1100    8.6590 O.3    44  SER44      -0.2179
     67  N         20.6870   52.4710   10.9220 N.am   45  HIS45      -0.1973
     68  CA        21.2950   51.1370   10.9120 C.3    45  HIS45       0.1656
     69  C         21.9070   50.8120    9.5570 C.2    45  HIS45       0.2291
     70  O         22.6860   49.8610    9.4340 O.2    45  HIS45      -0.2864
     71  CB        20.2700   50.0700   11.3050 C.3    45  HIS45       0.0771
     72  CG        19.7760   50.2100   12.7100 C.ar   45  HIS45       0.0820
     73  ND1       20.4780   49.7320   13.7970 N.ar   45  HIS45      -0.2267
     74  CD2       18.6560   50.7860   13.2090 C.ar   45  HIS45       0.1154
     75  CE1       19.8080   50.0000   14.9050 C.ar   45  HIS45       0.1986
     76  NE2       18.7000   50.6400   14.5750 N.ar   45  HIS45      -0.2212
     77  N         13.9640   62.3410   16.7550 N.3    71  ASP71      -0.1225
     78  CA        14.1090   60.8890   16.6280 C.3    71  ASP71       0.1805
     79  C         13.8610   60.2130   17.9680 C.2    71  ASP71       0.2597
     80  O         13.9880   60.8320   19.0220 O.2    71  ASP71      -0.2718
     81  CB        15.4800   60.4720   16.0610 C.3    71  ASP71       0.1424
     82  CG        15.4130   59.1490   15.2540 C.2    71  ASP71       0.3668
     83  OD1       14.3870   58.4310   15.2140 O.co2  71  ASP71      -0.2456
     84  OD2       16.4330   58.7960   14.6460 O.co2  71  ASP71      -0.2456
     85  N         13.5300   58.9210   17.9090 N.am   72  GLU72      -0.1979
     86  CA        13.3430   58.0750   19.1070 C.3    72  GLU72       0.1602
     87  C         12.2850   58.6650   20.0330 C.2    72  GLU72       0.2287
     88  O         12.4520   58.7080   21.2910 O.2    72  GLU72      -0.2864
     89  CB        14.6780   57.8810   19.8550 C.3    72  GLU72       0.0415
     90  CG        15.7980   57.2440   19.0100 C.3    72  GLU72       0.1163
     91  CD        15.6360   55.7450   18.7720 C.2    72  GLU72       0.3649
     92  OE1       14.5510   55.1780   19.0470 O.co2  72  GLU72      -0.2457
     93  OE2       16.6140   55.0990   18.3030 O.co2  72  GLU72      -0.2457
     94  N          9.3260   54.2910   17.6830 N.3    99  LEU99      -0.1245
     95  CA         8.6470   53.0080   17.7340 C.3    99  LEU99       0.1561
     96  C          7.2150   53.1530   18.2040 C.2    99  LEU99       0.2260
     97  O          6.9310   53.8990   19.1510 O.2    99  LEU99      -0.2867
     98  CB         9.3760   52.0950   18.7120 C.3    99  LEU99       0.0270
     99  CG        10.7570   51.6050   18.2580 C.3    99  LEU99       0.0019
    100  CD1       11.3580   50.8980   19.4250 C.3    99  LEU99       0.0001
    101  CD2       10.6880   50.6840   17.0890 C.3    99  LEU99       0.0001
    102  N          7.8270   49.2810    7.3170 N.3   125  LYS125     -0.1231
    103  CA         8.0540   47.8510    7.5560 C.3   125  LYS125      0.1693
    104  C          9.5250   47.5300    7.4800 C.2   125  LYS125      0.2592
    105  O         10.3110   48.2860    6.9160 O.2   125  LYS125     -0.2718
    106  CB         7.3420   46.9580    6.5280 C.3   125  LYS125      0.0285
    107  CG         5.8030   47.0680    6.5280 C.3   125  LYS125      0.0035
    108  CD         5.1520   46.2130    5.4310 C.3   125  LYS125      0.0206
    109  CE         5.6560   46.5990    4.0710 C.3   125  LYS125      0.1093
    110  NZ         4.7750   45.9690    3.0400 N.3   125  LYS125     -0.1314
    111  N          9.8710   46.4120    8.0990 N.am  126  ALA126     -0.1966
    112  CA        11.2290   45.8720    8.0030 C.3   126  ALA126      0.1728
    113  C         11.1420   44.4880    7.2930 C.2   126  ALA126      0.2616
    114  O         10.0660   43.9710    7.0470 O.2   126  ALA126     -0.2715
    115  CB        11.8510   45.7290    9.4210 C.3   126  ALA126      0.0334
    116  N         12.2990   43.9090    6.9480 N.am  127  VAL127     -0.1977
    117  CA        12.3790   42.5330    6.4640 C.3   127  VAL127      0.1596
    118  C         12.3210   41.6210    7.6840 C.2   127  VAL127      0.2287
    119  O         13.0440   41.8700    8.6740 O.2   127  VAL127     -0.2864
    120  CB        13.6950   42.3030    5.7330 C.3   127  VAL127      0.0276
    121  CG1       13.8100   40.8550    5.2950 C.3   127  VAL127      0.0022
    122  CG2       13.7670   43.2560    4.5460 C.3   127  VAL127      0.0022
    123  N         13.1650   38.8590   10.1620 N.3   129  HIS129     -0.1241
    124  CA        14.3980   38.1230   10.4590 C.3   129  HIS129      0.1621
    125  C         14.2260   36.6300   10.2340 C.2   129  HIS129      0.2264
    126  O         15.2080   35.9230    9.9470 O.2   129  HIS129     -0.2867
    127  CB        14.7570   38.3840   11.9110 C.3   129  HIS129      0.0745
    128  CG        16.1500   37.9730   12.2830 C.ar  129  HIS129      0.0817
    129  ND1       16.4570   36.7050   12.7280 N.ar  129  HIS129     -0.2268
    130  CD2       17.3030   38.6760   12.3140 C.ar  129  HIS129      0.1154
    131  CE1       17.7510   36.6340   12.9880 C.ar  129  HIS129      0.1986
    132  NE2       18.2880   37.8180   12.7420 N.ar  129  HIS129     -0.2212
    133  N          9.1710   41.1550    3.2720 N.3   134  TYR134     -0.1241
    134  CA         9.0490   42.5490    3.6320 C.3   134  TYR134      0.1605
    135  C          7.6950   42.7990    4.2840 C.2   134  TYR134      0.2264
    136  O          6.7900   43.4470    3.7160 O.2   134  TYR134     -0.2867
    137  CB         9.2630   43.4190    2.4120 C.3   134  TYR134      0.0534
    138  CG         9.4280   44.8830    2.7210 C.ar  134  TYR134     -0.0201
    139  CD1       10.3410   45.3340    3.6860 C.ar  134  TYR134     -0.0009
    140  CD2        8.7170   45.8350    2.0090 C.ar  134  TYR134     -0.0009
    141  CE1       10.5200   46.6900    3.9400 C.ar  134  TYR134      0.0417
    142  CE2        8.8890   47.1780    2.2690 C.ar  134  TYR134      0.0417
    143  CZ         9.7790   47.6030    3.2410 C.ar  134  TYR134      0.1957
    144  OH         9.9480   48.9450    3.4760 O.3   134  TYR134     -0.2866
    145  N         20.9590   45.0510   17.1880 N.3   154  GLN154     -0.1245
    146  CA        20.7460   43.7340   16.6510 C.3   154  GLN154      0.1566
    147  C         21.2010   42.5820   17.5560 C.2   154  GLN154      0.2260
    148  O         20.7620   41.4440   17.3660 O.2   154  GLN154     -0.2867
    149  CB        21.4190   43.6100   15.2790 C.3   154  GLN154      0.0367
    150  CG        20.8380   44.5490   14.2380 C.3   154  GLN154      0.0905
    151  CD        20.9250   43.9580   12.8410 C.2   154  GLN154      0.2608
    152  OE1       22.0240   43.7590   12.3040 O.2   154  GLN154     -0.2717
    153  NE2       19.7670   43.6520   12.2540 N.am  154  GLN154     -0.0878
    154  N         13.5480   42.2790   14.0080 N.3   159  ALA159     -0.1245
    155  CA        12.2530   42.6590   13.4170 C.3   159  ALA159      0.1562
    156  C         11.5910   41.4120   12.8890 C.2   159  ALA159      0.2260
    157  O         12.2200   40.5640   12.2330 O.2   159  ALA159     -0.2867
    158  CB        12.4720   43.6320   12.2630 C.3   159  ALA159      0.0290
@<TRIPOS>BOND
     1   140   142   ar
     2   140   138   ar
     3   142   143   ar
     4   137   138    1
     5   137   134    1
     6   138   139   ar
     7   110   109    1
     8   143   144    1
     9   143   141   ar
    10   133   134    1
    11   134   135    1
    12   139   141   ar
    13   136   135    2
    14   109   108    1
    15   122   120    1
    16    53    51    1
    17   121   120    1
    18   108   107    1
    19   120   117    1
    20    50    49    2
    21   117   116    1
    22   117   118    1
    23    51    52    1
    24    51    48    1
    25   106   107    1
    26   106   103    1
    27    49    48    1
    28   105   104    2
    29   116   113   am
    30   114   113    2
    31   113   112    1
    32   102   103    1
    33    48    47    1
    34   104   103    1
    35   104   111   am
    36    24    23    2
    37   118   119    2
    38    30    29    2
    39   112   111    1
    40   112   115    1
    41    28    29    1
    42    28    27    1
    43    23    27   am
    44    23    22    1
    45    29    31   am
    46    66    65    1
    47    47    42   am
    48    12    11    2
    49    22    25    1
    50    22    21    1
    51    43    42    2
    52    70    69    2
    53    69    68    1
    54    65    62    1
    55    42    41    1
    56    31    32    1
    57    25    26    1
    58   126   125    2
    59    34    33    2
    60    11    21   am
    61    11    10    1
    62   123   124    1
    63   125   124    1
    64    32    33    1
    65    32    35    1
    66    33    40   am
    67   124   127    1
    68    68    67    1
    69    68    71    1
    70    67    63   am
    71    40    41    1
    72    62    63    1
    73    62    61    1
    74    41    44    1
    75    63    64    2
    76    13    10    1
    77    13    14    1
    78    71    72    1
    79    10     9    1
    80    61    56   am
    81    35    36    1
    82    46    44    1
    83    44    45    1
    84    36    37    1
    85   127   128    1
    86   157   156    2
    87   153   151   am
    88   158   155    1
    89   128   130   ar
    90   128   129   ar
    91   152   151    2
    92   130   132   ar
    93    14    15   ar
    94    14    16   ar
    95     9     3   am
    96     4     3    2
    97    72    74   ar
    98    72    73   ar
    99   129   131   ar
   100   132   131   ar
   101    56    55    1
   102    56    57    2
   103   151   150    1
   104   156   155    1
   105     3     2    1
   106    59    58    1
   107    15    17   ar
   108    74    76   ar
   109    55    58    1
   110    55    54    1
   111    37    38    1
   112    16    18   ar
   113   155   154    1
   114    73    75   ar
   115    58    60    1
   116    39    38    1
   117   150   149    1
   118    17    19   ar
   119    18    19   ar
   120     2     1    1
   121     2     5    1
   122    76    75   ar
   123    84    82   ar
   124    19    20    1
   125    83    82   ar
   126    82    81    1
   127   149   146    1
   128     5     6    1
   129    81    78    1
   130    78    77    1
   131    78    79    1
   132   146   145    1
   133   146   147    1
   134     6     7    1
   135   101    99    1
   136   148   147    2
   137    94    95    1
   138    95    96    1
   139    95    98    1
   140     8     7    1
   141    85    79   am
   142    85    86    1
   143    79    80    2
   144    96    97    2
   145    99    98    1
   146    99   100    1
   147    93    91   ar
   148    91    90    1
   149    91    92   ar
   150    90    89    1
   151    86    89    1
   152    86    87    1
   153    87    88    2
