@<TRIPOS>MOLECULE
tmp/2qq0B00.pdb
 186 181 0 0 0
SMALL
GASTEIGER

@<TRIPOS>ATOM
      1  N        -14.2930   65.0940   12.3050 N.3    11  MET11      -0.1230
      2  CA       -15.6180   64.8180   11.7870 C.3    11  MET11       0.1702
      3  C        -15.7480   65.2220   10.3050 C.2    11  MET11       0.2592
      4  O        -15.1080   66.2040    9.8440 O.2    11  MET11      -0.2718
      5  CB       -16.6910   65.5120   12.6370 C.3    11  MET11       0.0401
      6  CG       -16.7110   64.9630   14.0700 C.3    11  MET11       0.0596
      7  SD       -17.9800   65.7060   15.0720 S.3    11  MET11      -0.1393
      8  CE       -19.4170   65.2230   14.0900 C.3    11  MET11       0.0692
      9  N        -16.5980   64.4800    9.6080 N.am   12  TYR12      -0.1976
     10  CA       -16.9710   64.8070    8.2140 C.3    12  TYR12       0.1639
     11  C        -15.8020   64.5610    7.2580 C.2    12  TYR12       0.2290
     12  O        -15.8320   65.0380    6.1130 O.2    12  TYR12      -0.2864
     13  CB       -17.4860   66.2450    8.0510 C.3    12  TYR12       0.0560
     14  CG       -18.3740   66.7110    9.1670 C.ar   12  TYR12      -0.0198
     15  CD1      -19.5310   66.0310    9.4980 C.ar   12  TYR12      -0.0009
     16  CD2      -18.0230   67.8110    9.9050 C.ar   12  TYR12      -0.0009
     17  CE1      -20.3370   66.4590   10.5790 C.ar   12  TYR12       0.0417
     18  CE2      -18.8070   68.2620   10.9900 C.ar   12  TYR12       0.0417
     19  CZ       -19.9480   67.5900   11.2860 C.ar   12  TYR12       0.1957
     20  OH       -20.7390   68.0190   12.3280 O.3    12  TYR12      -0.2866
     21  N        -14.7330   59.0850    7.2360 N.3    15  LYS15      -0.1231
     22  CA       -14.2360   57.9040    7.8730 C.3    15  LYS15       0.1693
     23  C        -15.2020   56.7390    7.7470 C.2    15  LYS15       0.2592
     24  O        -14.8330   55.6190    7.4060 O.2    15  LYS15      -0.2718
     25  CB       -13.9810   58.1810    9.3340 C.3    15  LYS15       0.0285
     26  CG       -12.8750   59.1910    9.5740 C.3    15  LYS15       0.0035
     27  CD       -12.5630   59.3480   11.0620 C.3    15  LYS15       0.0206
     28  CE       -13.7730   59.7120   11.9330 C.3    15  LYS15       0.1093
     29  NZ       -14.3990   61.0180   11.5860 N.3    15  LYS15      -0.1314
     30  N        -16.4660   56.9870    8.0500 N.am   16  THR16      -0.1953
     31  CA       -17.4520   55.9220    7.9670 C.3    16  THR16       0.1897
     32  C        -17.6560   55.4540    6.5110 C.2    16  THR16       0.2313
     33  O        -17.7580   54.2530    6.2020 O.2    16  THR16      -0.2863
     34  CB       -18.7700   56.4290    8.5480 C.3    16  THR16       0.1794
     35  OG1      -18.5720   56.6240    9.9650 O.3    16  THR16      -0.2208
     36  CG2      -19.8590   55.3870    8.3030 C.3    16  THR16       0.0378
     37  N        -22.4730   60.5510    7.0570 N.3    46  HIS46      -0.1241
     38  CA       -23.0120   61.9050    6.9110 C.3    46  HIS46       0.1621
     39  C        -23.4290   62.1830    5.4690 C.2    46  HIS46       0.2264
     40  O        -23.9220   63.2710    5.1510 O.2    46  HIS46      -0.2867
     41  CB       -21.9900   62.9570    7.3720 C.3    46  HIS46       0.0745
     42  CG       -21.6870   62.9070    8.8370 C.ar   46  HIS46       0.0817
     43  ND1      -22.4520   63.5610    9.7780 N.ar   46  HIS46      -0.2268
     44  CD2      -20.7020   62.2820    9.5240 C.ar   46  HIS46       0.1154
     45  CE1      -21.9550   63.3350   10.9830 C.ar   46  HIS46       0.1986
     46  NE2      -20.8930   62.5610   10.8560 N.ar   46  HIS46      -0.2212
     47  N        -16.8150   50.8890   13.8370 N.3    72  ASP72      -0.1225
     48  CA       -16.9300   52.3560   13.7420 C.3    72  ASP72       0.1805
     49  C        -16.9550   53.0420   15.0980 C.2    72  ASP72       0.2597
     50  O        -17.2810   52.4300   16.1290 O.2    72  ASP72      -0.2718
     51  CB       -18.1480   52.7770   12.8800 C.3    72  ASP72       0.1424
     52  CG       -17.9990   54.1980   12.2220 C.2    72  ASP72       0.3668
     53  OD1      -16.9840   54.9340   12.3450 O.co2  72  ASP72      -0.2456
     54  OD2      -18.9660   54.5490   11.5280 O.co2  72  ASP72      -0.2456
     55  N        -16.6300   54.3320   15.0960 N.am   73  GLU73      -0.1979
     56  CA       -16.6800   55.1860   16.2980 C.3    73  GLU73       0.1602
     57  C        -15.8550   54.5970   17.4160 C.2    73  GLU73       0.2287
     58  O        -16.2600   54.5500   18.6110 O.2    73  GLU73      -0.2864
     59  CB       -18.1310   55.4110   16.7620 C.3    73  GLU73       0.0415
     60  CG       -19.0160   56.0100   15.6850 C.3    73  GLU73       0.1163
     61  CD       -18.9200   57.5080   15.5420 C.2    73  GLU73       0.3649
     62  OE1      -17.9190   58.1200   16.0040 O.co2  73  GLU73      -0.2457
     63  OE2      -19.8860   58.0670   14.9410 O.co2  73  GLU73      -0.2457
     64  N        -13.4510   55.6170   19.0870 N.3    75  GLN75      -0.1231
     65  CA       -13.0920   56.4950   20.2130 C.3    75  GLN75       0.1698
     66  C        -13.9930   56.2450   21.4270 C.2    75  GLN75       0.2592
     67  O        -13.6240   56.6050   22.5720 O.2    75  GLN75      -0.2718
     68  CB       -13.1450   57.9810   19.8030 C.3    75  GLN75       0.0381
     69  CG       -14.5510   58.5630   19.5450 C.3    75  GLN75       0.0905
     70  CD       -15.0800   58.3740   18.1540 C.2    75  GLN75       0.2608
     71  OE1      -14.4790   57.7110   17.2930 O.2    75  GLN75      -0.2717
     72  NE2      -16.2620   58.9520   17.9150 N.am   75  GLN75      -0.0878
     73  N        -15.1750   55.6700   21.1990 N.am   76  PHE76      -0.1976
     74  CA       -16.1300   55.4730   22.2910 C.3    76  PHE76       0.1639
     75  C        -15.9960   54.1160   22.9280 C.2    76  PHE76       0.2290
     76  O        -16.6930   53.8350   23.9040 O.2    76  PHE76      -0.2864
     77  CB       -17.5820   55.6700   21.8070 C.3    76  PHE76       0.0560
     78  CG       -17.9060   57.1010   21.4570 C.ar   76  PHE76      -0.0200
     79  CD1      -17.3490   58.1650   22.1920 C.ar   76  PHE76      -0.0042
     80  CD2      -18.7340   57.3870   20.3880 C.ar   76  PHE76      -0.0042
     81  CE1      -17.6390   59.4880   21.8790 C.ar   76  PHE76      -0.0003
     82  CE2      -19.0500   58.7230   20.0720 C.ar   76  PHE76      -0.0003
     83  CZ       -18.4620   59.7750   20.8040 C.ar   76  PHE76      -0.0000
     84  N        -12.3850   55.9770   13.5430 N.3    99  GLY99      -0.1210
     85  CA       -12.7160   56.7680   14.7430 C.3    99  GLY99       0.1956
     86  C        -12.0210   58.1030   14.7540 C.2    99  GLY99       0.2611
     87  O        -11.0900   58.3180   13.9760 O.2    99  GLY99      -0.2717
     88  N        -12.4770   59.0110   15.6070 N.am  100  LEU100     -0.1979
     89  CA       -11.7890   60.2910   15.7710 C.3   100  LEU100      0.1596
     90  C        -10.4810   60.1170   16.4980 C.2   100  LEU100      0.2287
     91  O        -10.4040   59.3470   17.4470 O.2   100  LEU100     -0.2864
     92  CB       -12.6500   61.2410   16.6170 C.3   100  LEU100      0.0297
     93  CG       -13.9470   61.6840   15.9750 C.3   100  LEU100      0.0022
     94  CD1      -14.7740   62.3850   17.0660 C.3   100  LEU100      0.0001
     95  CD2      -13.6900   62.6100   14.8190 C.3   100  LEU100      0.0001
     96  N         -8.8390   63.0640   17.6920 N.3   102  LEU102     -0.1231
     97  CA        -8.7690   64.1390   18.6650 C.3   102  LEU102      0.1693
     98  C        -10.1470   64.6330   19.0390 C.2   102  LEU102      0.2593
     99  O        -11.0690   64.6430   18.2080 O.2   102  LEU102     -0.2718
    100  CB        -8.0160   65.3300   18.1190 C.3   102  LEU102      0.0284
    101  CG        -6.5550   65.0720   17.7160 C.3   102  LEU102      0.0019
    102  CD1       -6.0570   66.2650   16.9770 C.3   102  LEU102      0.0001
    103  CD2       -5.7010   64.7890   18.9520 C.3   102  LEU102      0.0001
    104  N        -10.2830   64.9930   20.2970 N.am  103  THR103     -0.1939
    105  CA       -11.4910   65.6950   20.7150 C.3   103  THR103      0.2028
    106  C        -11.5480   67.1190   20.1440 C.2   103  THR103      0.2642
    107  O        -10.5550   67.6680   19.6210 O.2   103  THR103     -0.2714
    108  CB       -11.6110   65.8030   22.2500 C.3   103  THR103      0.1808
    109  OG1      -10.7060   66.8160   22.6810 O.3   103  THR103     -0.2208
    110  CG2      -11.3000   64.4350   22.9210 C.3   103  THR103      0.0379
    111  N        -12.6890   67.7910   20.3480 N.am  104  HIS104     -0.1973
    112  CA       -12.8180   69.1740   19.9340 C.3   104  HIS104      0.1656
    113  C        -11.8780   70.1310   20.6600 C.2   104  HIS104      0.2291
    114  O        -11.6540   71.2560   20.2090 O.2   104  HIS104     -0.2864
    115  CB       -14.2810   69.6130   20.0490 C.3   104  HIS104      0.0771
    116  CG       -14.7230   69.9670   21.4360 C.ar  104  HIS104      0.0820
    117  ND1      -15.3650   69.0760   22.2720 N.ar  104  HIS104     -0.2267
    118  CD2      -14.6630   71.1400   22.1110 C.ar  104  HIS104      0.1154
    119  CE1      -15.6420   69.6830   23.4210 C.ar  104  HIS104      0.1986
    120  NE2      -15.2020   70.9210   23.3540 N.ar  104  HIS104     -0.2212
    121  N         -8.0850   61.0100   21.7690 N.3   109  PHE109     -0.1241
    122  CA        -8.9460   59.9240   22.2170 C.3   109  PHE109      0.1605
    123  C         -8.0850   58.6850   22.4780 C.2   109  PHE109      0.2264
    124  O         -7.4400   58.1580   21.5480 O.2   109  PHE109     -0.2867
    125  CB       -10.0000   59.6120   21.1350 C.3   109  PHE109      0.0534
    126  CG       -11.2240   60.4940   21.1860 C.ar  109  PHE109     -0.0203
    127  CD1      -12.1510   60.3870   22.2530 C.ar  109  PHE109     -0.0042
    128  CD2      -11.4760   61.3880   20.1490 C.ar  109  PHE109     -0.0042
    129  CE1      -13.3170   61.1960   22.2550 C.ar  109  PHE109     -0.0003
    130  CE2      -12.6200   62.1930   20.1690 C.ar  109  PHE109     -0.0003
    131  CZ       -13.5230   62.0900   21.2160 C.ar  109  PHE109     -0.0000
    132  N        -11.7400   69.1580   14.6530 N.3   140  THR140     -0.1218
    133  CA       -13.1420   69.4680   14.8740 C.3   140  THR140      0.1862
    134  C        -13.2520   70.5900   15.8990 C.2   140  THR140      0.2287
    135  O        -12.5650   70.5720   16.9240 O.2   140  THR140     -0.2866
    136  CB       -13.9180   68.2440   15.3660 C.3   140  THR140      0.1770
    137  OG1      -13.5880   67.0940   14.5520 O.3   140  THR140     -0.2211
    138  CG2      -15.3890   68.5280   15.2340 C.3   140  THR140      0.0375
    139  N        -16.4160   67.0290   26.3630 N.3   149  GLU149     -0.1231
    140  CA       -15.6930   66.2890   25.3110 C.3   149  GLU149      0.1699
    141  C        -16.3810   65.0260   24.8540 C.2   149  GLU149      0.2592
    142  O        -16.0430   64.4760   23.7790 O.2   149  GLU149     -0.2718
    143  CB       -14.3010   65.9190   25.7760 C.3   149  GLU149      0.0402
    144  CG       -13.3330   67.0330   25.5410 C.3   149  GLU149      0.1161
    145  CD       -11.9560   66.6930   26.0650 C.2   149  GLU149      0.3649
    146  OE1      -11.8440   66.2380   27.2300 O.co2 149  GLU149     -0.2457
    147  OE2      -10.9870   66.8910   25.3210 O.co2 149  GLU149     -0.2457
    148  N        -17.3220   64.5180   25.6450 N.am  150  ILE150     -0.1966
    149  CA       -18.1600   63.4060   25.1620 C.3   150  ILE150      0.1727
    150  C        -19.5700   63.9630   24.9380 C.2   150  ILE150      0.2616
    151  O        -20.2850   64.3040   25.8790 O.2   150  ILE150     -0.2715
    152  CB       -18.2040   62.1780   26.0900 C.3   150  ILE150      0.0290
    153  CG1      -16.7950   61.6230   26.3190 C.3   150  ILE150      0.0022
    154  CG2      -19.1390   61.1100   25.5120 C.3   150  ILE150      0.0023
    155  CD1      -16.0720   61.1550   25.0620 C.3   150  ILE150      0.0001
    156  N        -19.9590   64.0970   23.6700 N.am  151  ASP151     -0.1957
    157  CA       -21.2050   64.7720   23.3250 C.3   151  ASP151      0.1840
    158  C        -21.5330   64.3790   21.8780 C.2   151  ASP151      0.2622
    159  O        -20.9640   64.9080   20.9190 O.2   151  ASP151     -0.2715
    160  CB       -21.0460   66.2760   23.4650 C.3   151  ASP151      0.1450
    161  CG       -22.3620   67.0240   23.4040 C.2   151  ASP151      0.3671
    162  OD1      -23.4130   66.3830   23.2100 O.co2 151  ASP151     -0.2456
    163  OD2      -22.3330   68.2670   23.5300 O.co2 151  ASP151     -0.2456
    164  N        -22.4530   63.4410   21.7580 N.am  152  VAL152     -0.1963
    165  CA       -22.8510   62.8730   20.4730 C.3   152  VAL152      0.1727
    166  C        -23.6270   63.9360   19.7180 C.2   152  VAL152      0.2616
    167  O        -24.4530   64.6640   20.2960 O.2   152  VAL152     -0.2715
    168  CB       -23.6590   61.5540   20.6650 C.3   152  VAL152      0.0290
    169  CG1      -24.2370   61.0590   19.3270 C.3   152  VAL152      0.0023
    170  CG2      -22.7550   60.4770   21.2950 C.3   152  VAL152      0.0023
    171  N        -23.3550   64.0460   18.4260 N.am  153  GLY153     -0.1955
    172  CA       -24.0370   65.0580   17.6660 C.3   153  GLY153      0.1869
    173  C        -23.4030   65.2090   16.3190 C.2   153  GLY153      0.2309
    174  O        -22.4340   64.5080   15.9960 O.2   153  GLY153     -0.2863
    175  N        -20.9390   70.5950   15.7870 N.3   158  TYR158     -0.1241
    176  CA       -19.5200   70.5140   15.3760 C.3   158  TYR158      0.1605
    177  C        -19.2790   70.8920   13.9210 C.2   158  TYR158      0.2264
    178  O        -20.0940   70.5720   13.0320 O.2   158  TYR158     -0.2867
    179  CB       -19.0430   69.0880   15.5200 C.3   158  TYR158      0.0534
    180  CG       -19.1090   68.5260   16.8830 C.ar  158  TYR158     -0.0201
    181  CD1      -18.1380   68.8360   17.8160 C.ar  158  TYR158     -0.0009
    182  CD2      -20.1140   67.6350   17.2330 C.ar  158  TYR158     -0.0009
    183  CE1      -18.1450   68.2520   19.0650 C.ar  158  TYR158      0.0417
    184  CE2      -20.1510   67.0720   18.4990 C.ar  158  TYR158      0.0417
    185  CZ       -19.1630   67.3950   19.4120 C.ar  158  TYR158      0.1957
    186  OH       -19.1360   66.8190   20.6700 O.3   158  TYR158     -0.2866
@<TRIPOS>BOND
     1    40    39    2
     2    39    38    1
     3    12    11    2
     4    33    32    2
     5    32    31    1
     6    38    37    1
     7    38    41    1
     8    21    22    1
     9    11    10    1
    10    41    42    1
    11    24    23    2
    12    23    22    1
    13    23    30   am
    14    22    25    1
    15    31    30    1
    16    31    34    1
    17    13    10    1
    18    13    14    1
    19    10     9    1
    20    36    34    1
    21    34    35    1
    22    42    44   ar
    23    42    43   ar
    24    14    15   ar
    25    14    16   ar
    26    25    26    1
    27    15    17   ar
    28    44    46   ar
    29    26    27    1
    30     9     3   am
    31    43    45   ar
    32     4     3    2
    33    16    18   ar
    34     3     2    1
    35    17    19   ar
    36    46    45   ar
    37    18    19   ar
    38    27    28    1
    39    19    20    1
    40    54    52   ar
    41    29    28    1
    42     2     1    1
    43     2     5    1
    44    52    53   ar
    45    52    51    1
    46     5     6    1
    47    51    48    1
    48   178   177    2
    49    84    85    1
    50    48    47    1
    51    48    49    1
    52   177   176    1
    53    87    86    2
    54     6     7    1
    55     8     7    1
    56   137   136    1
    57   132   133    1
    58    85    86    1
    59    86    88   am
    60    95    93    1
    61   133   136    1
    62   133   134    1
    63    63    61   ar
    64    55    49   am
    65    55    56    1
    66    49    50    2
    67   138   136    1
    68   176   179    1
    69   176   175    1
    70   179   180    1
    71    61    60    1
    72    61    62   ar
    73    88    89    1
    74    60    59    1
    75    89    90    1
    76    89    92    1
    77   134   135    2
    78    93    92    1
    79    93    94    1
    80   174   173    2
    81    56    59    1
    82    56    57    1
    83   173   172    1
    84    90    91    2
    85   180   182   ar
    86   180   181   ar
    87   102   101    1
    88   182   184   ar
    89    71    70    2
    90    57    58    2
    91   172   171    1
    92    96    97    1
    93   101   100    1
    94   101   103    1
    95   181   183   ar
    96    72    70   am
    97   100    97    1
    98    70    69    1
    99    99    98    2
   100   171   166   am
   101   184   185   ar
   102    97    98    1
   103    98   104   am
   104   183   185   ar
   105    64    65    1
   106   169   168    1
   107   185   186    1
   108    69    68    1
   109   107   106    2
   110   166   167    2
   111   166   165    1
   112    68    65    1
   113   112   115    1
   114   112   111    1
   115   112   113    1
   116   115   116    1
   117    82    80   ar
   118    82    83   ar
   119   106   111   am
   120   106   105    1
   121   128   130   ar
   122   128   126   ar
   123   130   131   ar
   124   114   113    2
   125    65    66    1
   126   104   105    1
   127    80    78   ar
   128   165   168    1
   129   165   164    1
   130   168   170    1
   131   105   108    1
   132    83    81   ar
   133   159   158    2
   134   125   126    1
   135   125   122    1
   136   126   127   ar
   137    73    66   am
   138    73    74    1
   139   131   129   ar
   140    66    67    2
   141   116   118   ar
   142   116   117   ar
   143    78    77    1
   144    78    79   ar
   145   124   123    2
   146   164   158   am
   147   121   122    1
   148    77    74    1
   149   158   157    1
   150    81    79   ar
   151   118   120   ar
   152   122   123    1
   153   108   109    1
   154   108   110    1
   155   127   129   ar
   156   117   119   ar
   157    74    75    1
   158    75    76    2
   159   162   161   ar
   160   157   160    1
   161   157   156    1
   162   120   119   ar
   163   161   160    1
   164   161   163   ar
   165   156   150   am
   166   142   141    2
   167   141   140    1
   168   141   148   am
   169   150   149    1
   170   150   151    2
   171   155   153    1
   172   149   148    1
   173   149   152    1
   174   140   143    1
   175   140   139    1
   176   147   145   ar
   177   154   152    1
   178   144   143    1
   179   144   145    1
   180   145   146   ar
   181   152   153    1
