@<TRIPOS>MOLECULE
tmp/2qq0B01.pdb
 132 129 0 0 0
SMALL
GASTEIGER

@<TRIPOS>ATOM
      1  N        -14.2930   65.0940   12.3050 N.3    11  MET11      -0.1230
      2  CA       -15.6180   64.8180   11.7870 C.3    11  MET11       0.1702
      3  C        -15.7480   65.2220   10.3050 C.2    11  MET11       0.2592
      4  O        -15.1080   66.2040    9.8440 O.2    11  MET11      -0.2718
      5  CB       -16.6910   65.5120   12.6370 C.3    11  MET11       0.0401
      6  CG       -16.7110   64.9630   14.0700 C.3    11  MET11       0.0596
      7  SD       -17.9800   65.7060   15.0720 S.3    11  MET11      -0.1393
      8  CE       -19.4170   65.2230   14.0900 C.3    11  MET11       0.0692
      9  N        -16.5980   64.4800    9.6080 N.am   12  TYR12      -0.1962
     10  CA       -16.9710   64.8070    8.2140 C.3    12  TYR12       0.1771
     11  C        -15.8020   64.5610    7.2580 C.2    12  TYR12       0.2620
     12  O        -15.8320   65.0380    6.1130 O.2    12  TYR12      -0.2715
     13  CB       -17.4860   66.2450    8.0510 C.3    12  TYR12       0.0574
     14  CG       -18.3740   66.7110    9.1670 C.ar   12  TYR12      -0.0198
     15  CD1      -19.5310   66.0310    9.4980 C.ar   12  TYR12      -0.0009
     16  CD2      -18.0230   67.8110    9.9050 C.ar   12  TYR12      -0.0009
     17  CE1      -20.3370   66.4590   10.5790 C.ar   12  TYR12       0.0417
     18  CE2      -18.8070   68.2620   10.9900 C.ar   12  TYR12       0.0417
     19  CZ       -19.9480   67.5900   11.2860 C.ar   12  TYR12       0.1957
     20  OH       -20.7390   68.0190   12.3280 O.3    12  TYR12      -0.2866
     21  N        -14.8160   63.7860    7.7110 N.am   13  SER13      -0.1936
     22  CA       -13.6700   63.4980    6.8560 C.3    13  SER13       0.2055
     23  C        -13.8670   62.2450    6.0050 C.2    13  SER13       0.2644
     24  O        -12.9590   61.9240    5.2280 O.2    13  SER13      -0.2714
     25  CB       -12.3850   63.4220    7.6880 C.3    13  SER13       0.2130
     26  OG       -12.4800   62.4100    8.6490 O.3    13  SER13      -0.2179
     27  N        -15.0050   61.5720    6.1080 N.am   14  GLY14      -0.1939
     28  CA       -15.2850   60.3900    5.2780 C.3    14  GLY14       0.2014
     29  C        -14.8510   59.0960    5.9060 C.2    14  GLY14       0.2639
     30  O        -14.6110   58.1120    5.2290 O.2    14  GLY14      -0.2714
     31  N        -14.7330   59.0850    7.2360 N.am   15  LYS15      -0.1963
     32  CA       -14.2360   57.9040    7.8730 C.3    15  LYS15       0.1728
     33  C        -15.2020   56.7390    7.7470 C.2    15  LYS15       0.2617
     34  O        -14.8330   55.6190    7.4060 O.2    15  LYS15      -0.2715
     35  CB       -13.9810   58.1810    9.3340 C.3    15  LYS15       0.0311
     36  CG       -12.8750   59.1910    9.5740 C.3    15  LYS15       0.0038
     37  CD       -12.5630   59.3480   11.0620 C.3    15  LYS15       0.0206
     38  CE       -13.7730   59.7120   11.9330 C.3    15  LYS15       0.1093
     39  NZ       -14.3990   61.0180   11.5860 N.3    15  LYS15      -0.1314
     40  N        -16.4660   56.9870    8.0500 N.am   16  THR16      -0.1937
     41  CA       -17.4520   55.9220    7.9670 C.3    16  THR16       0.2028
     42  C        -17.6560   55.4540    6.5110 C.2    16  THR16       0.2642
     43  O        -17.7580   54.2530    6.2020 O.2    16  THR16      -0.2714
     44  CB       -18.7700   56.4290    8.5480 C.3    16  THR16       0.1808
     45  OG1      -18.5720   56.6240    9.9650 O.3    16  THR16      -0.2208
     46  CG2      -19.8590   55.3870    8.3030 C.3    16  THR16       0.0379
     47  N        -17.6620   56.4230    5.6120 N.am   17  THR17      -0.1950
     48  CA       -17.7610   56.1150    4.1770 C.3    17  THR17       0.1897
     49  C        -16.6250   55.1730    3.7510 C.2    17  THR17       0.2313
     50  O        -16.8510   54.1650    3.0820 O.2    17  THR17      -0.2863
     51  CB       -17.6770   57.4150    3.3350 C.3    17  THR17       0.1794
     52  OG1      -18.7970   58.2680    3.6180 O.3    17  THR17      -0.2208
     53  CG2      -17.6730   57.1150    1.8410 C.3    17  THR17       0.0378
     54  N        -24.4430   54.5050    9.4840 N.3    44  VAL44      -0.1231
     55  CA       -24.7870   55.3900    8.3810 C.3    44  VAL44       0.1692
     56  C        -23.8210   56.5870    8.3890 C.2    44  VAL44       0.2593
     57  O        -23.4520   57.1110    9.4610 O.2    44  VAL44      -0.2718
     58  CB       -26.2830   55.8620    8.4520 C.3    44  VAL44       0.0266
     59  CG1      -26.6340   56.7690    7.2800 C.3    44  VAL44       0.0020
     60  CG2      -27.2380   54.6710    8.4690 C.3    44  VAL44       0.0020
     61  N        -23.3920   56.9800    7.1900 N.am   45  SER45      -0.1938
     62  CA       -22.4830   58.1050    6.9970 C.3    45  SER45       0.2055
     63  C        -23.2190   59.4570    6.9070 C.2    45  SER45       0.2643
     64  O        -24.4380   59.4940    6.7030 O.2    45  SER45      -0.2714
     65  CB       -21.6770   57.8840    5.7250 C.3    45  SER45       0.2130
     66  OG       -22.4650   58.2050    4.5920 O.3    45  SER45      -0.2179
     67  N        -22.4730   60.5510    7.0570 N.am   46  HIS46      -0.1973
     68  CA       -23.0120   61.9050    6.9110 C.3    46  HIS46       0.1656
     69  C        -23.4290   62.1830    5.4690 C.2    46  HIS46       0.2291
     70  O        -23.9220   63.2710    5.1510 O.2    46  HIS46      -0.2864
     71  CB       -21.9900   62.9570    7.3720 C.3    46  HIS46       0.0771
     72  CG       -21.6870   62.9070    8.8370 C.ar   46  HIS46       0.0820
     73  ND1      -22.4520   63.5610    9.7780 N.ar   46  HIS46      -0.2267
     74  CD2      -20.7020   62.2820    9.5240 C.ar   46  HIS46       0.1154
     75  CE1      -21.9550   63.3350   10.9830 C.ar   46  HIS46       0.1986
     76  NE2      -20.8930   62.5610   10.8560 N.ar   46  HIS46      -0.2212
     77  N        -16.8150   50.8890   13.8370 N.3    72  ASP72      -0.1239
     78  CA       -16.9300   52.3560   13.7420 C.3    72  ASP72       0.1674
     79  C        -16.9550   53.0420   15.0980 C.2    72  ASP72       0.2266
     80  O        -17.2810   52.4300   16.1290 O.2    72  ASP72      -0.2867
     81  CB       -18.1480   52.7770   12.8800 C.3    72  ASP72       0.1410
     82  CG       -17.9990   54.1980   12.2220 C.2    72  ASP72       0.3668
     83  OD1      -16.9840   54.9340   12.3450 O.co2  72  ASP72      -0.2456
     84  OD2      -18.9660   54.5490   11.5280 O.co2  72  ASP72      -0.2456
     85  N         -9.0150   63.9320    5.6520 N.3   126  LYS126     -0.1231
     86  CA        -9.2930   65.3480    5.8750 C.3   126  LYS126      0.1693
     87  C        -10.7340   65.6440    5.5170 C.2   126  LYS126      0.2592
     88  O        -11.3540   64.9230    4.7700 O.2   126  LYS126     -0.2718
     89  CB        -8.3990   66.2290    4.9880 C.3   126  LYS126      0.0285
     90  CG        -6.8640   65.9760    5.1900 C.3   126  LYS126      0.0035
     91  CD        -6.0210   66.9490    4.3820 C.3   126  LYS126      0.0206
     92  CE        -6.1970   66.6510    2.9190 C.3   126  LYS126      0.1093
     93  NZ        -5.1400   67.3620    2.0970 N.3   126  LYS126     -0.1314
     94  N        -11.1880   66.7910    5.9860 N.am  127  ALA127     -0.1966
     95  CA       -12.4720   67.3640    5.6410 C.3   127  ALA127      0.1728
     96  C        -12.2600   68.7240    4.9700 C.2   127  ALA127      0.2616
     97  O        -11.1570   69.3000    4.9570 O.2   127  ALA127     -0.2715
     98  CB       -13.3100   67.5400    6.9210 C.3   127  ALA127      0.0334
     99  N        -13.3640   69.2470    4.4260 N.am  128  VAL128     -0.1977
    100  CA       -13.3780   70.6310    3.9690 C.3   128  VAL128      0.1596
    101  C        -13.5180   71.5720    5.1670 C.2   128  VAL128      0.2287
    102  O        -14.3980   71.3850    6.0190 O.2   128  VAL128     -0.2864
    103  CB       -14.4890   70.8660    2.9200 C.3   128  VAL128      0.0276
    104  CG1      -14.5180   72.3680    2.5370 C.3   128  VAL128      0.0022
    105  CG2      -14.2530   69.9520    1.6980 C.3   128  VAL128      0.0022
    106  N        -14.7440   74.4240    7.2430 N.3   130  HIS130     -0.1241
    107  CA       -15.9920   75.1710    7.2760 C.3   130  HIS130      0.1621
    108  C        -15.7450   76.6540    7.0930 C.2   130  HIS130      0.2264
    109  O        -16.6170   77.3810    6.5840 O.2   130  HIS130     -0.2867
    110  CB       -16.6580   74.9270    8.6250 C.3   130  HIS130      0.0745
    111  CG       -18.0460   75.4740    8.7350 C.ar  130  HIS130      0.0817
    112  ND1      -18.3080   76.7520    9.1790 N.ar  130  HIS130     -0.2268
    113  CD2      -19.2500   74.8960    8.5070 C.ar  130  HIS130      0.1154
    114  CE1      -19.6160   76.9480    9.1990 C.ar  130  HIS130      0.1986
    115  NE2      -20.2110   75.8400    8.7900 N.ar  130  HIS130     -0.2212
    116  N         -9.5280   71.9720    1.3370 N.3   135  TYR135     -0.1241
    117  CA        -9.5620   70.5610    1.7470 C.3   135  TYR135      0.1605
    118  C         -8.3520   70.3040    2.6360 C.2   135  TYR135      0.2264
    119  O         -7.3650   69.6180    2.2600 O.2   135  TYR135     -0.2867
    120  CB        -9.5720   69.6510    0.5260 C.3   135  TYR135      0.0534
    121  CG        -9.7720   68.1730    0.8260 C.ar  135  TYR135     -0.0201
    122  CD1      -10.8670   67.7310    1.5930 C.ar  135  TYR135     -0.0009
    123  CD2       -8.8870   67.2030    0.3190 C.ar  135  TYR135     -0.0009
    124  CE1      -11.0820   66.3690    1.8660 C.ar  135  TYR135      0.0417
    125  CE2       -9.0980   65.8240    0.6080 C.ar  135  TYR135      0.0417
    126  CZ       -10.2030   65.4420    1.3610 C.ar  135  TYR135      0.1957
    127  OH       -10.4200   64.1060    1.6350 O.3   135  TYR135     -0.2866
    128  N        -15.8510   71.0700   10.9740 N.3   160  ALA160     -0.1245
    129  CA       -14.4660   70.6900   10.6990 C.3   160  ALA160      0.1562
    130  C        -13.7030   71.9010   10.2970 C.2   160  ALA160      0.2260
    131  O        -14.1990   72.7150    9.5100 O.2   160  ALA160     -0.2867
    132  CB       -14.4080   69.6550    9.5760 C.3   160  ALA160      0.0290
@<TRIPOS>BOND
     1   123   125   ar
     2   123   121   ar
     3   120   121    1
     4   120   117    1
     5   125   126   ar
     6   121   122   ar
     7   116   117    1
     8   126   127    1
     9   126   124   ar
    10   122   124   ar
    11   105   103    1
    12   117   118    1
    13    53    51    1
    14    93    92    1
    15   119   118    2
    16   104   103    1
    17    92    91    1
    18   103   100    1
    19    50    49    2
    20    51    52    1
    21    51    48    1
    22    49    48    1
    23   100    99    1
    24   100   101    1
    25    48    47    1
    26    91    90    1
    27    99    96   am
    28    66    65    1
    29    88    87    2
    30    97    96    2
    31    96    95    1
    32    89    90    1
    33    89    86    1
    34    70    69    2
    35   101   102    2
    36    24    23    2
    37    30    29    2
    38    28    29    1
    39    28    27    1
    40    69    68    1
    41    87    86    1
    42    87    94   am
    43    47    42   am
    44    95    94    1
    45    95    98    1
    46    85    86    1
    47    65    62    1
    48    29    31   am
    49    23    27   am
    50    23    22    1
    51    12    11    2
    52    43    42    2
    53    42    41    1
    54   109   108    2
    55    64    63    2
    56    22    25    1
    57    22    21    1
    58    63    62    1
    59    63    67   am
    60    68    67    1
    61    68    71    1
    62    62    61    1
    63   108   107    1
    64    61    56   am
    65    31    32    1
    66   106   107    1
    67    11    21   am
    68    11    10    1
    69   107   110    1
    70    59    58    1
    71    71    72    1
    72    34    33    2
    73    25    26    1
    74    33    32    1
    75    33    40   am
    76    32    35    1
    77    41    40    1
    78    41    44    1
    79    13    10    1
    80    13    14    1
    81    10     9    1
    82    46    44    1
    83    55    56    1
    84    55    58    1
    85    55    54    1
    86    56    57    2
    87    58    60    1
    88   113   111   ar
    89   113   115   ar
    90    44    45    1
    91   110   111    1
    92   111   112   ar
    93   115   114   ar
    94    72    74   ar
    95    72    73   ar
    96    14    15   ar
    97    14    16   ar
    98   112   114   ar
    99    35    36    1
   100    15    17   ar
   101   131   130    2
   102    74    76   ar
   103    36    37    1
   104   132   129    1
   105     9     3   am
   106    73    75   ar
   107     4     3    2
   108    16    18   ar
   109   130   129    1
   110     3     2    1
   111    17    19   ar
   112   129   128    1
   113    76    75   ar
   114    18    19   ar
   115    37    38    1
   116    19    20    1
   117    84    82   ar
   118    39    38    1
   119     2     1    1
   120     2     5    1
   121    82    83   ar
   122    82    81    1
   123     5     6    1
   124    81    78    1
   125    78    77    1
   126    78    79    1
   127     6     7    1
   128     8     7    1
   129    79    80    2
