@<TRIPOS>MOLECULE
tmp/2qqeA00.pdb
 145 139 0 0 0
SMALL
GASTEIGER

@<TRIPOS>ATOM
      1  N         42.1760   15.0700    9.8540 N.3    11  MET11      -0.1245
      2  CA        40.8490   15.0310    9.2880 C.3    11  MET11       0.1570
      3  C         40.8180   15.5530    7.8790 C.2    11  MET11       0.2261
      4  O         41.7040   16.3240    7.4520 O.2    11  MET11      -0.2867
      5  CB        39.8260   15.7340   10.1980 C.3    11  MET11       0.0387
      6  CG        39.7040   15.0280   11.5120 C.3    11  MET11       0.0595
      7  SD        38.5430   15.9070   12.6080 S.3    11  MET11      -0.1393
      8  CE        36.9640   15.6680   11.8400 C.3    11  MET11       0.0692
      9  N         40.9400    9.3400    4.2920 N.3    15  LYS15      -0.1245
     10  CA        41.4460    8.1080    4.9200 C.3    15  LYS15       0.1561
     11  C         40.4550    6.9630    4.8110 C.2    15  LYS15       0.2260
     12  O         40.8640    5.8200    4.5810 O.2    15  LYS15      -0.2867
     13  CB        41.7730    8.3280    6.4160 C.3    15  LYS15       0.0271
     14  CG        42.8900    9.3240    6.7330 C.3    15  LYS15       0.0035
     15  CD        43.3110    9.1700    8.2030 C.3    15  LYS15       0.0206
     16  CE        42.1590    9.4790    9.1530 C.3    15  LYS15       0.1093
     17  NZ        41.7480   10.8950    8.8340 N.3    15  LYS15      -0.1314
     18  N         38.6510    4.5740   11.9060 N.3    68  GLU68      -0.1245
     19  CA        38.7700    5.3980   13.1330 C.3    68  GLU68       0.1567
     20  C         39.4060    4.6920   14.3110 C.2    68  GLU68       0.2260
     21  O         38.8930    4.7460   15.4480 O.2    68  GLU68      -0.2867
     22  CB        37.3960    5.9550   13.5510 C.3    68  GLU68       0.0388
     23  CG        36.5630    6.4930   12.4090 C.3    68  GLU68       0.1160
     24  CD        36.8270    7.9550   12.0830 C.2    68  GLU68       0.3649
     25  OE1       38.0130    8.4110   12.0660 O.co2  68  GLU68      -0.2457
     26  OE2       35.8140    8.6510   11.8290 O.co2  68  GLU68      -0.2457
     27  N         41.6260    5.4640   16.2780 N.3    70  GLN70      -0.1231
     28  CA        42.0850    6.2800   17.4400 C.3    70  GLN70       0.1698
     29  C         41.1810    6.1080   18.6880 C.2    70  GLN70       0.2592
     30  O         41.6090    6.3510   19.8240 O.2    70  GLN70      -0.2718
     31  CB        42.2300    7.7600   17.0450 C.3    70  GLN70       0.0381
     32  CG        40.9290    8.5430   16.8280 C.3    70  GLN70       0.0905
     33  CD        40.3630    8.4240   15.4280 C.2    70  GLN70       0.2608
     34  OE1       40.9270    7.7620   14.5720 O.2    70  GLN70      -0.2717
     35  NE2       39.2450    9.0950   15.1890 N.am   70  GLN70      -0.0878
     36  N         39.9590    5.6650   18.4370 N.am   71  PHE71      -0.1976
     37  CA        38.8970    5.4760   19.4410 C.3    71  PHE71       0.1639
     38  C         38.9000    4.0890   20.0840 C.2    71  PHE71       0.2290
     39  O         38.1670    3.8430   21.0420 O.2    71  PHE71      -0.2864
     40  CB        37.5140    5.7120   18.7910 C.3    71  PHE71       0.0560
     41  CG        37.1940    7.1700   18.4890 C.ar   71  PHE71      -0.0200
     42  CD1       37.9430    8.2010   19.0500 C.ar   71  PHE71      -0.0042
     43  CD2       36.1330    7.4920   17.6460 C.ar   71  PHE71      -0.0042
     44  CE1       37.6300    9.5680   18.7570 C.ar   71  PHE71      -0.0003
     45  CE2       35.8170    8.8420   17.3480 C.ar   71  PHE71      -0.0003
     46  CZ        36.5690    9.8740   17.9230 C.ar   71  PHE71      -0.0000
     47  N         43.2640    8.7680   12.9400 N.3    95  LEU95      -0.1245
     48  CA        43.9960    9.9860   13.2310 C.3    95  LEU95       0.1561
     49  C         45.2610    9.6910   14.0200 C.2    95  LEU95       0.2260
     50  O         45.2300    8.9220   15.0260 O.2    95  LEU95      -0.2867
     51  CB        43.1280   10.9810   13.9970 C.3    95  LEU95       0.0270
     52  CG        41.9680   11.5730   13.2290 C.3    95  LEU95       0.0019
     53  CD1       41.0400   12.3400   14.1380 C.3    95  LEU95       0.0001
     54  CD2       42.4790   12.4780   12.0500 C.3    95  LEU95       0.0001
     55  N         47.3250   12.4070   15.3860 N.3    97  LEU97      -0.1231
     56  CA        47.4190   13.3810   16.5160 C.3    97  LEU97       0.1693
     57  C         46.0580   13.9390   16.8900 C.2    97  LEU97       0.2593
     58  O         45.1640   14.0040   16.0400 O.2    97  LEU97      -0.2718
     59  CB        48.3090   14.5470   16.1200 C.3    97  LEU97       0.0284
     60  CG        49.6660   14.0800   15.5890 C.3    97  LEU97       0.0019
     61  CD1       50.2510   15.0160   14.5010 C.3    97  LEU97       0.0001
     62  CD2       50.6130   13.8480   16.7320 C.3    97  LEU97       0.0001
     63  N         45.9100   14.3510   18.1530 N.am   98  THR98      -0.1939
     64  CA        44.7250   15.0420   18.5820 C.3    98  THR98       0.2028
     65  C         44.7860   16.4900   18.0720 C.2    98  THR98       0.2642
     66  O         45.7840   16.9190   17.4930 O.2    98  THR98      -0.2714
     67  CB        44.5960   15.0910   20.1460 C.3    98  THR98       0.1808
     68  OG1       45.6910   15.8260   20.6730 O.3    98  THR98      -0.2208
     69  CG2       44.5950   13.6710   20.7790 C.3    98  THR98       0.0379
     70  N         43.7190   17.2360   18.3010 N.am   99  HIS99      -0.1973
     71  CA        43.7030   18.6540   17.9690 C.3    99  HIS99       0.1656
     72  C         44.7760   19.4890   18.6810 C.2    99  HIS99       0.2291
     73  O         45.1000   20.5960   18.2100 O.2    99  HIS99      -0.2864
     74  CB        42.2890   19.2370   18.1380 C.3    99  HIS99       0.0771
     75  CG        41.9020   19.5090   19.5600 C.ar   99  HIS99       0.0820
     76  ND1       41.2320   18.5870   20.3330 N.ar   99  HIS99      -0.2267
     77  CD2       42.0780   20.5980   20.3380 C.ar   99  HIS99       0.1154
     78  CE1       41.0210   19.0910   21.5360 C.ar   99  HIS99       0.1986
     79  NE2       41.5130   20.3180   21.5610 N.ar   99  HIS99      -0.2212
     80  N         47.6240   10.0110   19.4740 N.3   104  PHE104     -0.1241
     81  CA        46.6260    9.0220   19.8480 C.3   104  PHE104      0.1605
     82  C         47.3260    7.6770   20.0770 C.2   104  PHE104      0.2264
     83  O         48.0250    7.1460   19.2240 O.2   104  PHE104     -0.2867
     84  CB        45.5950    8.8640   18.7420 C.3   104  PHE104      0.0534
     85  CG        44.4840    9.8650   18.7830 C.ar  104  PHE104     -0.0203
     86  CD1       43.4490    9.7340   19.7100 C.ar  104  PHE104     -0.0042
     87  CD2       44.4400   10.8920   17.8430 C.ar  104  PHE104     -0.0042
     88  CE1       42.4030   10.6480   19.7270 C.ar  104  PHE104     -0.0003
     89  CE2       43.3900   11.8240   17.8480 C.ar  104  PHE104     -0.0003
     90  CZ        42.3720   11.6900   18.8020 C.ar  104  PHE104     -0.0000
     91  N         45.0740   18.7190   12.5510 N.3   135  THR135     -0.1218
     92  CA        43.6810   19.0840   12.7660 C.3   135  THR135      0.1862
     93  C         43.5850   20.1220   13.8820 C.2   135  THR135      0.2287
     94  O         44.1400   19.9420   14.9690 O.2   135  THR135     -0.2866
     95  CB        42.8940   17.8770   13.1360 C.3   135  THR135      0.1770
     96  OG1       43.0920   16.8940   12.1020 O.3   135  THR135     -0.2211
     97  CG2       41.4160   18.2380   13.2400 C.3   135  THR135      0.0375
     98  N         39.7530   16.4400   24.3270 N.3   143  GLU143     -0.1231
     99  CA        40.5280   15.7360   23.3020 C.3   143  GLU143      0.1699
    100  C         39.7090   14.7080   22.5360 C.2   143  GLU143      0.2592
    101  O         39.9190   14.5220   21.3400 O.2   143  GLU143     -0.2718
    102  CB        41.7520   15.0870   23.9050 C.3   143  GLU143      0.0402
    103  CG        42.8820   16.1120   24.1520 C.3   143  GLU143      0.1161
    104  CD        44.0030   15.5050   24.9640 C.2   143  GLU143      0.3649
    105  OE1       43.9810   14.2550   25.0250 O.co2 143  GLU143     -0.2457
    106  OE2       44.8080   16.2730   25.4730 O.co2 143  GLU143     -0.2457
    107  N         38.8020   14.0200   23.2290 N.am  144  ILE144     -0.1966
    108  CA        37.8660   13.1200   22.5700 C.3   144  ILE144      0.1727
    109  C         36.4850   13.7670   22.5380 C.2   144  ILE144      0.2616
    110  O         35.8920   14.0570   23.5920 O.2   144  ILE144     -0.2715
    111  CB        37.8420   11.7370   23.2560 C.3   144  ILE144      0.0290
    112  CG1       39.1760   11.0200   22.9620 C.3   144  ILE144      0.0022
    113  CG2       36.6490   10.9250   22.8160 C.3   144  ILE144      0.0023
    114  CD1       39.3980    9.7820   23.7860 C.3   144  ILE144      0.0001
    115  N         35.9950   14.0080   21.3190 N.am  145  ASP145     -0.1957
    116  CA        34.8450   14.8770   21.0770 C.3   145  ASP145      0.1840
    117  C         34.4220   14.8290   19.6040 C.2   145  ASP145      0.2622
    118  O         35.0740   15.4230   18.7270 O.2   145  ASP145     -0.2715
    119  CB        35.1700   16.3130   21.5020 C.3   145  ASP145      0.1450
    120  CG        33.9940   17.2570   21.5630 C.2   145  ASP145      0.3671
    121  OD1       32.8700   16.9040   21.1440 O.co2 145  ASP145     -0.2456
    122  OD2       34.1770   18.4080   22.0420 O.co2 145  ASP145     -0.2456
    123  N         33.3400   14.1050   19.3380 N.am  146  VAL146     -0.1963
    124  CA        32.8190   13.8880   17.9740 C.3   146  VAL146      0.1727
    125  C         32.4770   15.1850   17.2240 C.2   146  VAL146      0.2616
    126  O         32.0720   16.1830   17.8230 O.2   146  VAL146     -0.2715
    127  CB        31.5460   12.9570   17.9790 C.3   146  VAL146      0.0290
    128  CG1       31.8810   11.5720   18.4630 C.3   146  VAL146      0.0023
    129  CG2       30.4440   13.5670   18.8530 C.3   146  VAL146      0.0023
    130  N         32.6220   15.1650   15.8980 N.am  147  GLY147     -0.1955
    131  CA        32.1870   16.2950   15.0830 C.3   147  GLY147      0.1869
    132  C         32.6790   16.2650   13.6560 C.2   147  GLY147      0.2309
    133  O         33.4440   15.3870   13.2650 O.2   147  GLY147     -0.2863
    134  N         36.0540   21.1090   13.5860 N.3   152  TYR152     -0.1241
    135  CA        37.4470   20.8200   13.3200 C.3   152  TYR152      0.1605
    136  C         37.7450   21.2180   11.9100 C.2   152  TYR152      0.2264
    137  O         36.9340   21.0110   11.0230 O.2   152  TYR152     -0.2867
    138  CB        37.7270   19.3150   13.4040 C.3   152  TYR152      0.0534
    139  CG        37.5770   18.6840   14.7490 C.ar  152  TYR152     -0.0201
    140  CD1       38.6010   18.7540   15.6860 C.ar  152  TYR152     -0.0009
    141  CD2       36.4200   17.9720   15.0800 C.ar  152  TYR152     -0.0009
    142  CE1       38.4600   18.1700   16.9340 C.ar  152  TYR152      0.0417
    143  CE2       36.2660   17.3930   16.3610 C.ar  152  TYR152      0.0417
    144  CZ        37.2980   17.4730   17.2480 C.ar  152  TYR152      0.1957
    145  OH        37.1930   16.8780   18.4900 O.3   152  TYR152     -0.2866
@<TRIPOS>BOND
     1     9    10    1
     2    12    11    2
     3    11    10    1
     4    10    13    1
     5    13    14    1
     6    14    15    1
     7     4     3    2
     8     3     2    1
     9    15    16    1
    10    17    16    1
    11     2     1    1
    12     2     5    1
    13     5     6    1
    14   137   136    2
    15     6     7    1
    16    26    24   ar
    17     8     7    1
    18    18    19    1
    19   136   135    1
    20    54    52    1
    21    25    24   ar
    22    24    23    1
    23    96    95    1
    24    23    22    1
    25    91    92    1
    26    92    95    1
    27    92    93    1
    28    47    48    1
    29    19    22    1
    30    19    20    1
    31    95    97    1
    32    52    51    1
    33    52    53    1
    34    48    51    1
    35    48    49    1
    36   133   132    2
    37   135   138    1
    38   135   134    1
    39   138   139    1
    40   132   131    1
    41    93    94    2
    42    49    50    2
    43    20    21    2
    44    61    60    1
    45    34    33    2
    46   139   141   ar
    47   139   140   ar
    48   141   143   ar
    49   131   130    1
    50    35    33   am
    51    55    56    1
    52    33    32    1
    53    60    59    1
    54    60    62    1
    55   140   142   ar
    56   130   125   am
    57    58    57    2
    58    59    56    1
    59    27    28    1
    60   143   144   ar
    61    56    57    1
    62    32    31    1
    63    57    63   am
    64   142   144   ar
    65    31    28    1
    66   125   126    2
    67   125   124    1
    68   144   145    1
    69    45    43   ar
    70    45    46   ar
    71    28    29    1
    72    66    65    2
    73    43    41   ar
    74    87    89   ar
    75    87    85   ar
    76    89    90   ar
    77    46    44   ar
    78    71    74    1
    79    71    70    1
    80    71    72    1
    81   124   127    1
    82   124   123    1
    83   127   128    1
    84   127   129    1
    85    65    70   am
    86    65    64    1
    87    74    75    1
    88    63    64    1
    89    73    72    2
    90    36    29   am
    91    36    37    1
    92    41    40    1
    93    41    42   ar
    94    64    67    1
    95    29    30    2
    96   118   117    2
    97    84    85    1
    98    84    81    1
    99    44    42   ar
   100    85    86   ar
   101    40    37    1
   102    90    88   ar
   103    83    82    2
   104   123   117   am
   105    37    38    1
   106    80    81    1
   107    75    76   ar
   108    75    77   ar
   109   117   116    1
   110    86    88   ar
   111    81    82    1
   112    38    39    2
   113    67    68    1
   114    67    69    1
   115    76    78   ar
   116    77    79   ar
   117   116   115    1
   118   116   119    1
   119   121   120   ar
   120   115   109   am
   121   101   100    2
   122   119   120    1
   123    78    79   ar
   124   120   122   ar
   125   100   107   am
   126   100    99    1
   127   109   108    1
   128   109   110    2
   129   108   107    1
   130   108   111    1
   131   113   111    1
   132   112   111    1
   133   112   114    1
   134    99   102    1
   135    99    98    1
   136   102   103    1
   137   103   104    1
   138   104   105   ar
   139   104   106   ar
