@<TRIPOS>MOLECULE
tmp/2qqoA00.pdb
 85 81 0 0 0
SMALL
GASTEIGER

@<TRIPOS>ATOM
      1  N         19.4090    6.3690    1.1140 N.3   137  TYR137     -0.1241
      2  CA        20.0130    7.6790    0.8540 C.3   137  TYR137      0.1605
      3  C         19.7810    8.1510   -0.5920 C.2   137  TYR137      0.2264
      4  O         19.8720    7.3630   -1.5350 O.2   137  TYR137     -0.2867
      5  CB        21.5080    7.6670    1.1890 C.3   137  TYR137      0.0534
      6  CG        22.1270    9.0500    1.2280 C.ar  137  TYR137     -0.0201
      7  CD1       21.6440   10.0340    2.0960 C.ar  137  TYR137     -0.0009
      8  CD2       23.2000    9.3780    0.3880 C.ar  137  TYR137     -0.0009
      9  CE1       22.2210   11.3110    2.1300 C.ar  137  TYR137      0.0417
     10  CE2       23.7810   10.6450    0.4120 C.ar  137  TYR137      0.0417
     11  CZ        23.2920   11.6060    1.2800 C.ar  137  TYR137      0.1957
     12  OH        23.8830   12.8540    1.2880 O.3   137  TYR137     -0.2866
     13  N         21.1110    9.6180   -3.1250 N.3   139  ASP139     -0.1239
     14  CA        22.0140    9.4670   -4.2980 C.3   139  ASP139      0.1674
     15  C         22.0920    8.0500   -4.9310 C.2   139  ASP139      0.2266
     16  O         22.6560    7.8860   -6.0250 O.2   139  ASP139     -0.2867
     17  CB        23.4290   10.0120   -3.9890 C.3   139  ASP139      0.1410
     18  CG        24.2420    9.1310   -3.0240 C.2   139  ASP139      0.3668
     19  OD1       23.7550    8.0770   -2.5620 O.co2 139  ASP139     -0.2456
     20  OD2       25.4010    9.5110   -2.7240 O.co2 139  ASP139     -0.2456
     21  N         23.9570    4.0120   -1.4560 N.3   142  TRP142     -0.1241
     22  CA        23.9130    3.2680   -0.1900 C.3   142  TRP142      0.1605
     23  C         22.6040    2.4790   -0.0910 C.2   142  TRP142      0.2264
     24  O         21.8220    2.6390    0.8490 O.2   142  TRP142     -0.2867
     25  CB        24.1050    4.2120    1.0090 C.3   142  TRP142      0.0550
     26  CG        25.3770    5.0150    0.9740 C.ar  142  TRP142      0.0003
     27  CD1       25.6190    6.1240    0.2160 C.ar  142  TRP142      0.0946
     28  CD2       26.5810    4.7840    1.7310 C.ar  142  TRP142      0.0152
     29  NE1       26.8830    6.5840    0.4430 N.ar  142  TRP142     -0.2442
     30  CE2       27.4930    5.7930    1.3770 C.ar  142  TRP142      0.0810
     31  CE3       26.9680    3.8300    2.6830 C.ar  142  TRP142      0.0012
     32  CZ2       28.7800    5.8690    1.9220 C.ar  142  TRP142      0.0191
     33  CZ3       28.2540    3.9080    3.2330 C.ar  142  TRP142      0.0001
     34  CH2       29.1370    4.9260    2.8570 C.ar  142  TRP142      0.0015
     35  N         22.4960    2.8010    3.8040 N.3   157  THR157     -0.1218
     36  CA        22.2250    4.0090    4.5870 C.3   157  THR157      0.1862
     37  C         20.8120    4.5050    4.2440 C.2   157  THR157      0.2287
     38  O         20.4200    4.4910    3.0650 O.2   157  THR157     -0.2866
     39  CB        23.2850    5.1290    4.3370 C.3   157  THR157      0.1770
     40  OG1       24.5580    4.7290    4.8780 O.3   157  THR157     -0.2211
     41  CG2       22.8720    6.4370    4.9890 C.3   157  THR157      0.0375
     42  N         19.2510    9.8320    8.9090 N.3   161  ASP161     -0.1239
     43  CA        19.7180    9.0220   10.0370 C.3   161  ASP161      0.1674
     44  C         18.9050    9.3200   11.3090 C.2   161  ASP161      0.2266
     45  O         19.0820   10.3530   11.9370 O.2   161  ASP161     -0.2867
     46  CB        21.2250    9.2440   10.3050 C.3   161  ASP161      0.1410
     47  CG        22.1290    8.8430    9.1080 C.2   161  ASP161      0.3668
     48  OD1       21.6450    8.2960    8.0840 O.co2 161  ASP161     -0.2456
     49  OD2       23.3540    9.0990    9.1920 O.co2 161  ASP161     -0.2456
     50  N         33.3400    4.9440    3.0640 N.3   187  SER187     -0.1217
     51  CA        33.0180    5.6180    1.8120 C.3   187  SER187      0.1889
     52  C         34.1840    5.4810    0.8010 C.2   187  SER187      0.2288
     53  O         35.3090    5.9310    1.0570 O.2   187  SER187     -0.2866
     54  CB        32.6890    7.0900    2.0890 C.3   187  SER187      0.2089
     55  OG        31.7480    7.6050    1.1670 O.3   187  SER187     -0.2183
     56  N         31.7630    4.9920    8.7230 N.3   194  TYR194     -0.1241
     57  CA        30.4170    5.1390    9.2740 C.3   194  TYR194      0.1605
     58  C         29.9850    3.7900    9.8280 C.2   194  TYR194      0.2264
     59  O         30.1450    2.7710    9.1490 O.2   194  TYR194     -0.2867
     60  CB        29.4250    5.5240    8.1670 C.3   194  TYR194      0.0534
     61  CG        29.6990    6.8420    7.4840 C.ar  194  TYR194     -0.0201
     62  CD1       29.2020    8.0310    8.0060 C.ar  194  TYR194     -0.0009
     63  CD2       30.4370    6.8980    6.3130 C.ar  194  TYR194     -0.0009
     64  CE1       29.4490    9.2400    7.3850 C.ar  194  TYR194      0.0417
     65  CE2       30.6880    8.0940    5.6890 C.ar  194  TYR194      0.0417
     66  CZ        30.1910    9.2700    6.2260 C.ar  194  TYR194      0.1957
     67  OH        30.4440   10.4870    5.6020 O.3   194  TYR194     -0.2866
     68  N         29.0260    8.9320   13.2700 N.3   254  SER254     -0.1202
     69  CA        29.0080    9.7880   12.0830 C.3   254  SER254      0.2020
     70  C         27.7380    9.5970   11.2470 C.2   254  SER254      0.2619
     71  O         27.1880   10.5630   10.7260 O.2   254  SER254     -0.2717
     72  CB        30.2740    9.5970   11.2280 C.3   254  SER254      0.2103
     73  OG        31.4520    9.6450   12.0250 O.3   254  SER254     -0.2182
     74  N         27.2820    8.3600   11.1030 N.am  255  GLY255     -0.1942
     75  CA        26.0570    8.0800   10.3570 C.3   255  GLY255      0.2014
     76  C         25.7810    6.5900   10.2030 C.2   255  GLY255      0.2638
     77  O         26.6710    5.7550   10.3580 O.2   255  GLY255     -0.2714
     78  N         24.5360    6.2640    9.8780 N.am  256  ILE256     -0.1977
     79  CA        24.1180    4.8790    9.6870 C.3   256  ILE256      0.1596
     80  C         24.6660    4.3310    8.3780 C.2   256  ILE256      0.2287
     81  O         24.3270    4.8180    7.2920 O.2   256  ILE256     -0.2864
     82  CB        22.5830    4.7420    9.7090 C.3   256  ILE256      0.0276
     83  CG1       22.0450    5.2100   11.0670 C.3   256  ILE256      0.0022
     84  CG2       22.1830    3.2980    9.3800 C.3   256  ILE256      0.0022
     85  CD1       20.5270    5.3740   11.1450 C.3   256  ILE256      0.0001
@<TRIPOS>BOND
     1    16    15    2
     2    15    14    1
     3    14    17    1
     4    14    13    1
     5    17    18    1
     6    18    20   ar
     7    18    19   ar
     8     4     3    2
     9    21    22    1
    10     3     2    1
    11    22    23    1
    12    22    25    1
    13    23    24    2
    14    27    29   ar
    15    27    26   ar
    16     8    10   ar
    17     8     6   ar
    18    10    11   ar
    19    29    30   ar
    20    52    53    2
    21    52    51    1
    22     2     1    1
    23     2     5    1
    24    26    25    1
    25    26    28   ar
    26    55    54    1
    27     5     6    1
    28     6     7   ar
    29    11    12    1
    30    11     9   ar
    31    30    28   ar
    32    30    32   ar
    33    28    31   ar
    34    51    54    1
    35    51    50    1
    36    32    34   ar
    37     7     9   ar
    38    31    33   ar
    39    34    33   ar
    40    38    37    2
    41    35    36    1
    42    37    36    1
    43    39    36    1
    44    39    40    1
    45    39    41    1
    46    67    66    1
    47    65    66   ar
    48    65    63   ar
    49    66    64   ar
    50    63    61   ar
    51    81    80    2
    52    64    62   ar
    53    61    62   ar
    54    61    60    1
    55    48    47   ar
    56    60    57    1
    57    80    79    1
    58    56    57    1
    59    42    43    1
    60    47    49   ar
    61    47    46    1
    62    59    58    2
    63    57    58    1
    64    84    82    1
    65    79    82    1
    66    79    78    1
    67    82    83    1
    68    78    76   am
    69    43    46    1
    70    43    44    1
    71    76    75    1
    72    76    77    2
    73    75    74    1
    74    71    70    2
    75    83    85    1
    76    74    70   am
    77    72    73    1
    78    72    69    1
    79    70    69    1
    80    44    45    2
    81    69    68    1
