@<TRIPOS>MOLECULE
tmp/2qqsA01.pdb
 123 125 0 0 0
SMALL
GASTEIGER

@<TRIPOS>ATOM
      1  N         11.8930   -9.5750   17.6620 N.3    35  ASN35      -0.1225
      2  CA        12.3230  -10.9590   17.9230 C.3    35  ASN35       0.1785
      3  C         11.1650  -11.9000   18.2190 C.2    35  ASN35       0.2597
      4  O         10.7720  -12.0780   19.3850 O.2    35  ASN35      -0.2718
      5  CB        13.3270  -11.0170   19.0760 C.3    35  ASN35       0.1169
      6  CG        14.7170  -10.6310   18.6480 C.2    35  ASN35       0.2627
      7  OD1       14.9530  -10.3120   17.4890 O.2    35  ASN35      -0.2716
      8  ND2       15.6500  -10.6580   19.5830 N.am   35  ASN35      -0.0877
      9  N         10.6240  -12.5070   17.1730 N.am   36  PHE36      -0.1962
     10  CA         9.5290  -13.4450   17.3570 C.3    36  PHE36       0.1771
     11  C          9.8500  -14.5540   18.3550 C.2    36  PHE36       0.2620
     12  O         10.9320  -15.1310   18.3350 O.2    36  PHE36      -0.2715
     13  CB         9.0850  -14.0210   16.0130 C.3    36  PHE36       0.0574
     14  CG         8.4680  -12.9980   15.1020 C.ar   36  PHE36      -0.0200
     15  CD1        9.1670  -12.5130   14.0110 C.ar   36  PHE36      -0.0042
     16  CD2        7.1950  -12.4950   15.3590 C.ar   36  PHE36      -0.0042
     17  CE1        8.6060  -11.5590   13.1770 C.ar   36  PHE36      -0.0003
     18  CE2        6.6270  -11.5310   14.5220 C.ar   36  PHE36      -0.0003
     19  CZ         7.3370  -11.0640   13.4290 C.ar   36  PHE36      -0.0000
     20  N          8.9010  -14.8310   19.2390 N.am   37  ASP37      -0.1957
     21  CA         9.0660  -15.8830   20.2600 C.3    37  ASP37       0.1840
     22  C          9.2670  -17.2820   19.6250 C.2    37  ASP37       0.2622
     23  O          9.3120  -18.2930   20.3200 O.2    37  ASP37      -0.2715
     24  CB         7.8880  -15.8770   21.2790 C.3    37  ASP37       0.1450
     25  CG         7.8090  -14.5700   22.1100 C.2    37  ASP37       0.3671
     26  OD1        8.1860  -14.5830   23.3090 O.co2  37  ASP37      -0.2456
     27  OD2        7.3530  -13.5330   21.5810 O.co2  37  ASP37      -0.2456
     28  N          9.3900  -17.3320   18.3020 N.am   38  ASP38      -0.1957
     29  CA         9.7090  -18.5820   17.6350 C.3    38  ASP38       0.1840
     30  C         11.1560  -18.5790   17.1720 C.2    38  ASP38       0.2623
     31  O         11.5390  -19.3630   16.3080 O.2    38  ASP38      -0.2715
     32  CB         8.7710  -18.8340   16.4540 C.3    38  ASP38       0.1450
     33  CG         9.1150  -17.9960   15.2390 C.2    38  ASP38       0.3671
     34  OD1        8.7280  -18.4090   14.1190 O.co2  38  ASP38      -0.2456
     35  OD2        9.7610  -16.9340   15.3920 O.co2  38  ASP38      -0.2456
     36  N         11.9410  -17.6670   17.7320 N.am   39  GLY39      -0.1940
     37  CA        13.3670  -17.6080   17.4700 C.3    39  GLY39       0.2014
     38  C         13.7810  -16.9870   16.1520 C.2    39  GLY39       0.2640
     39  O         14.9670  -16.9550   15.8400 O.2    39  GLY39      -0.2714
     40  N         12.8210  -16.5130   15.3660 N.am   40  SER40      -0.1935
     41  CA        13.1420  -15.8040   14.1390 C.3    40  SER40       0.2055
     42  C         13.0040  -14.3020   14.4020 C.2    40  SER40       0.2643
     43  O         12.9000  -13.8870   15.5610 O.2    40  SER40      -0.2714
     44  CB        12.2250  -16.2390   13.0100 C.3    40  SER40       0.2130
     45  OG        10.9520  -15.6750   13.1880 O.3    40  SER40      -0.2179
     46  N         13.0150  -13.5000   13.3330 N.am   41  PHE41      -0.1959
     47  CA        13.0030  -12.0340   13.4380 C.3    41  PHE41       0.1771
     48  C         12.4780  -11.3340   12.1820 C.2    41  PHE41       0.2620
     49  O         12.2020  -11.9640   11.1660 O.2    41  PHE41      -0.2715
     50  CB        14.4080  -11.5000   13.8020 C.3    41  PHE41       0.0574
     51  CG        15.3300  -11.2620   12.6110 C.ar   41  PHE41      -0.0200
     52  CD1       15.5410   -9.9710   12.1200 C.ar   41  PHE41      -0.0042
     53  CD2       16.0240  -12.3170   12.0250 C.ar   41  PHE41      -0.0042
     54  CE1       16.3890   -9.7510   11.0290 C.ar   41  PHE41      -0.0003
     55  CE2       16.8780  -12.1050   10.9430 C.ar   41  PHE41      -0.0003
     56  CZ        17.0600  -10.8250   10.4470 C.ar   41  PHE41      -0.0000
     57  N         12.3370  -10.0200   12.2460 N.am   42  SER42      -0.1936
     58  CA        12.0600   -9.2800   11.0380 C.3    42  SER42       0.2055
     59  C         12.4370   -7.8310   11.2280 C.2    42  SER42       0.2643
     60  O         12.1620   -7.2520   12.2680 O.2    42  SER42      -0.2714
     61  CB        10.5920   -9.4160   10.6820 C.3    42  SER42       0.2130
     62  OG        10.3370   -8.7850    9.4450 O.3    42  SER42      -0.2179
     63  N         13.0900   -7.2390   10.2430 N.am   43  ASP43      -0.1957
     64  CA        13.3840   -5.8140   10.3330 C.3    43  ASP43       0.1840
     65  C         12.7160   -5.0250    9.2250 C.2    43  ASP43       0.2622
     66  O         12.9900   -3.8350    9.0650 O.2    43  ASP43      -0.2715
     67  CB        14.8860   -5.5540   10.3280 C.3    43  ASP43       0.1450
     68  CG        15.5890   -6.2710    9.1970 C.2    43  ASP43       0.3671
     69  OD1       14.9210   -6.5990    8.1850 O.co2  43  ASP43      -0.2456
     70  OD2       16.8130   -6.5220    9.3260 O.co2  43  ASP43      -0.2456
     71  N         11.8620   -5.6760    8.4420 N.am   44  ASN44      -0.1972
     72  CA        11.1360   -4.9510    7.4220 C.3    44  ASN44       0.1688
     73  C          9.6790   -4.6900    7.8290 C.2    44  ASN44       0.2292
     74  O          8.7700   -4.7000    6.9880 O.2    44  ASN44      -0.2864
     75  CB        11.2850   -5.5820    6.0320 C.3    44  ASN44       0.1181
     76  CG        10.7350   -6.9790    5.9630 C.2    44  ASN44       0.2629
     77  OD1       10.8670   -7.7620    6.9070 O.2    44  ASN44      -0.2716
     78  ND2       10.1150   -7.3130    4.8310 N.am   44  ASN44      -0.0877
     79  N          1.7390  -10.1690   11.5430 N.3    71  TRP71      -0.1227
     80  CA         2.6090  -10.6790   10.4910 C.3    71  TRP71       0.1737
     81  C          1.9250  -10.4330    9.1330 C.2    71  TRP71       0.2596
     82  O          0.8280   -9.8670    9.0880 O.2    71  TRP71      -0.2718
     83  CB         2.9130  -12.1610   10.7430 C.3    71  TRP71       0.0564
     84  CG         3.8630  -12.7970    9.7710 C.ar   71  TRP71       0.0003
     85  CD1        3.6080  -13.8800    8.9780 C.ar   71  TRP71       0.0946
     86  CD2        5.2170  -12.3960    9.4770 C.ar   71  TRP71       0.0152
     87  NE1        4.7090  -14.1790    8.2090 N.ar   71  TRP71      -0.2442
     88  CE2        5.7100  -13.2850    8.4900 C.ar   71  TRP71       0.0810
     89  CE3        6.0570  -11.3780    9.9470 C.ar   71  TRP71       0.0012
     90  CZ2        7.0150  -13.1860    7.9610 C.ar   71  TRP71       0.0191
     91  CZ3        7.3660  -11.2900    9.4240 C.ar   71  TRP71       0.0001
     92  CH2        7.8250  -12.1990    8.4500 C.ar   71  TRP71       0.0015
     93  N          2.5810  -10.8380    8.0420 N.am   72  THR72      -0.1939
     94  CA         2.1580  -10.4770    6.6810 C.3    72  THR72       0.2028
     95  C          0.9600  -11.3010    6.2240 C.2    72  THR72       0.2642
     96  O          0.4030  -11.0590    5.1390 O.2    72  THR72      -0.2714
     97  CB         3.3020  -10.6530    5.6680 C.3    72  THR72       0.1808
     98  OG1        3.8340  -11.9850    5.7690 O.3    72  THR72      -0.2208
     99  CG2        4.4100   -9.6210    5.9320 C.3    72  THR72       0.0379
    100  N          0.5930  -12.2890    7.0470 N.am   73  ASP73      -0.1971
    101  CA        -0.6300  -13.0510    6.8480 C.3    73  ASP73       0.1709
    102  C         -1.7430  -12.4210    7.7240 C.2    73  ASP73       0.2293
    103  O         -2.7850  -13.0490    8.0130 O.2    73  ASP73      -0.2864
    104  CB        -0.4050  -14.5410    7.1590 C.3    73  ASP73       0.1436
    105  CG         0.0010  -14.7820    8.5920 C.2    73  ASP73       0.3671
    106  OD1        0.4300  -13.8230    9.2540 O.co2  73  ASP73      -0.2456
    107  OD2       -0.1030  -15.9320    9.0740 O.co2  73  ASP73      -0.2456
    108  N          1.2890  -12.2610   16.2470 N.3    77  TYR77      -0.1227
    109  CA         2.2540  -13.0950   16.9450 C.3    77  TYR77       0.1736
    110  C          2.9310  -12.3160   18.0500 C.2    77  TYR77       0.2596
    111  O          3.0460  -11.0750   17.9800 O.2    77  TYR77      -0.2718
    112  CB         3.3120  -13.6160   15.9660 C.3    77  TYR77       0.0548
    113  CG         2.7190  -14.4580   14.8780 C.ar   77  TYR77      -0.0200
    114  CD1        2.4340  -13.9100   13.6440 C.ar   77  TYR77      -0.0009
    115  CD2        2.4010  -15.8050   15.0940 C.ar   77  TYR77      -0.0009
    116  CE1        1.8500  -14.6790   12.6320 C.ar   77  TYR77       0.0417
    117  CE2        1.8060  -16.5860   14.0870 C.ar   77  TYR77       0.0417
    118  CZ         1.5400  -16.0080   12.8690 C.ar   77  TYR77       0.1957
    119  OH         0.9870  -16.7280   11.8650 O.3    77  TYR77      -0.2866
    120  N          3.3750  -13.0530   19.0640 N.am   78  GLY78      -0.1957
    121  CA         4.1850  -12.4990   20.1310 C.3    78  GLY78       0.1869
    122  C          5.6120  -12.3150   19.6580 C.2    78  GLY78       0.2309
    123  O          6.1580  -13.1870   18.9820 O.2    78  GLY78      -0.2863
@<TRIPOS>BOND
     1    78    76   am
     2    96    95    2
     3    97    98    1
     4    97    99    1
     5    97    94    1
     6    76    75    1
     7    76    77    2
     8    75    72    1
     9    95    94    1
    10    95   100   am
    11    94    93    1
    12   101   100    1
    13   101   104    1
    14   101   102    1
    15    74    73    2
    16   104   105    1
    17    72    73    1
    18    72    71    1
    19   102   103    2
    20    90    92   ar
    21    90    88   ar
    22    93    81   am
    23    69    68   ar
    24    87    88   ar
    25    87    85   ar
    26    71    65   am
    27    92    91   ar
    28    88    86   ar
    29   105   107   ar
    30   105   106   ar
    31    85    84   ar
    32    66    65    2
    33    82    81    2
    34    81    80    1
    35    68    70   ar
    36    68    67    1
    37    65    64    1
    38    91    89   ar
    39    62    61    1
    40    86    84   ar
    41    86    89   ar
    42    84    83    1
    43    63    64    1
    44    63    59   am
    45    67    64    1
    46    56    55   ar
    47    56    54   ar
    48    80    83    1
    49    80    79    1
    50    61    58    1
    51    55    53   ar
    52    54    52   ar
    53    58    59    1
    54    58    57    1
    55    49    48    2
    56    59    60    2
    57   119   118    1
    58    53    51   ar
    59    52    51   ar
    60    48    57   am
    61    48    47    1
    62    51    50    1
    63   116   118   ar
    64   116   114   ar
    65   118   117   ar
    66    44    45    1
    67    44    41    1
    68    17    19   ar
    69    17    15   ar
    70    46    47    1
    71    46    42   am
    72    19    18   ar
    73    47    50    1
    74   114   113   ar
    75    15    14   ar
    76   117   115   ar
    77    34    33   ar
    78    41    42    1
    79    41    40    1
    80    42    43    2
    81    18    16   ar
    82   113   115   ar
    83   113   112    1
    84    14    16   ar
    85    14    13    1
    86    33    35   ar
    87    33    32    1
    88    40    38   am
    89    39    38    2
    90   112   109    1
    91    13    10    1
    92    38    37    1
    93   108   109    1
    94    31    30    2
    95    32    29    1
    96   109   110    1
    97    30    29    1
    98    30    36   am
    99     9    10    1
   100     9     3   am
   101    10    11    1
   102    37    36    1
   103     7     6    2
   104    29    28    1
   105     1     2    1
   106     2     3    1
   107     2     5    1
   108   111   110    2
   109   110   120   am
   110     3     4    2
   111    28    22   am
   112    12    11    2
   113    11    20   am
   114     6     5    1
   115     6     8   am
   116   123   122    2
   117   120   121    1
   118    20    21    1
   119    22    21    1
   120    22    23    2
   121   122   121    1
   122    21    24    1
   123    24    25    1
   124    27    25   ar
   125    25    26   ar
