@<TRIPOS>MOLECULE
tmp/2qqsB00.pdb
 100 99 0 0 0
SMALL
GASTEIGER

@<TRIPOS>ATOM
      1  N          9.4300  -10.2240   34.4750 N.3    31  GLU31      -0.1245
      2  CA         9.0330   -8.9020   33.9520 C.3    31  GLU31       0.1567
      3  C          8.0400   -8.2330   34.8940 C.2    31  GLU31       0.2260
      4  O          6.9390   -8.7500   35.1220 O.2    31  GLU31      -0.2867
      5  CB         8.4090   -9.0000   32.5400 C.3    31  GLU31       0.0388
      6  CG         8.0110   -7.6320   31.9410 C.3    31  GLU31       0.1160
      7  CD         7.1350   -7.7030   30.6820 C.2    31  GLU31       0.3649
      8  OE1        6.9880   -6.6480   30.0120 O.co2  31  GLU31      -0.2457
      9  OE2        6.6010   -8.7940   30.3630 O.co2  31  GLU31      -0.2457
     10  N          6.3990   -4.2070   36.2660 N.3    33  ASN33      -0.1225
     11  CA         6.2000   -2.7910   36.0670 C.3    33  ASN33       0.1785
     12  C          6.5240   -2.0760   37.3660 C.2    33  ASN33       0.2597
     13  O          6.1410   -2.5440   38.4470 O.2    33  ASN33      -0.2718
     14  CB         4.7330   -2.4860   35.7350 C.3    33  ASN33       0.1169
     15  CG         4.2990   -3.0270   34.3970 C.2    33  ASN33       0.2627
     16  OD1        4.8220   -2.6410   33.3640 O.2    33  ASN33      -0.2716
     17  ND2        3.2980   -3.8830   34.4110 N.am   33  ASN33      -0.0877
     18  N          7.1890   -0.9280   37.2540 N.am   34  PHE34      -0.1976
     19  CA         7.4970   -0.1450   38.4230 C.3    34  PHE34       0.1639
     20  C          6.5070    0.9530   38.7400 C.2    34  PHE34       0.2290
     21  O          5.7070    1.3560   37.8920 O.2    34  PHE34      -0.2864
     22  CB         8.9390    0.3460   38.4040 C.3    34  PHE34       0.0560
     23  CG         9.9120   -0.6970   38.8890 C.ar   34  PHE34      -0.0200
     24  CD1       10.8160   -1.3020   38.0010 C.ar   34  PHE34      -0.0042
     25  CD2        9.8920   -1.1130   40.2320 C.ar   34  PHE34      -0.0042
     26  CE1       11.6940   -2.2660   38.4370 C.ar   34  PHE34      -0.0003
     27  CE2       10.7730   -2.0850   40.6810 C.ar   34  PHE34      -0.0003
     28  CZ        11.6820   -2.6630   39.7770 C.ar   34  PHE34      -0.0000
     29  N          6.5180    3.8050   38.7510 N.3    36  ASP36      -0.1225
     30  CA         6.7360    5.0610   38.0540 C.3    36  ASP36       0.1805
     31  C          6.8850    4.8690   36.5520 C.2    36  ASP36       0.2598
     32  O          7.8380    5.3530   35.9440 O.2    36  ASP36      -0.2718
     33  CB         7.9510    5.8030   38.6420 C.3    36  ASP36       0.1424
     34  CG         9.1200    4.8670   38.9880 C.2    36  ASP36       0.3668
     35  OD1        9.4000    4.7200   40.2220 O.co2  36  ASP36      -0.2456
     36  OD2        9.7310    4.3030   38.0370 O.co2  36  ASP36      -0.2456
     37  N          5.9290    4.1660   35.9620 N.am   37  GLY37      -0.1942
     38  CA         5.8610    3.9970   34.5110 C.3    37  GLY37       0.2014
     39  C          6.9900    3.1860   33.9150 C.2    37  GLY37       0.2640
     40  O          7.0210    2.9390   32.7030 O.2    37  GLY37      -0.2714
     41  N          7.9190    2.7820   34.7760 N.am   38  SER38      -0.1935
     42  CA         9.1240    2.0960   34.3460 C.3    38  SER38       0.2055
     43  C          8.8720    0.5960   34.3440 C.2    38  SER38       0.2643
     44  O          7.8150    0.1250   34.7910 O.2    38  SER38      -0.2714
     45  CB        10.2770    2.4660   35.2790 C.3    38  SER38       0.2130
     46  OG        11.3750    1.5930   35.1480 O.3    38  SER38      -0.2179
     47  N          9.8260   -0.1510   33.7970 N.am   39  PHE39      -0.1959
     48  CA         9.8110   -1.6060   33.9330 C.3    39  PHE39       0.1771
     49  C         11.2380   -2.1410   33.9550 C.2    39  PHE39       0.2620
     50  O         12.1940   -1.4000   33.7490 O.2    39  PHE39      -0.2715
     51  CB         8.9120   -2.3060   32.8750 C.3    39  PHE39       0.0574
     52  CG         9.6110   -2.6510   31.6000 C.ar   39  PHE39      -0.0200
     53  CD1        9.8830   -1.6810   30.6540 C.ar   39  PHE39      -0.0042
     54  CD2        9.9910   -3.9510   31.3340 C.ar   39  PHE39      -0.0042
     55  CE1       10.5550   -2.0010   29.4730 C.ar   39  PHE39      -0.0003
     56  CE2       10.6410   -4.2710   30.1600 C.ar   39  PHE39      -0.0003
     57  CZ        10.9270   -3.2910   29.2330 C.ar   39  PHE39      -0.0000
     58  N         11.3600   -3.4200   34.2780 N.am   40  SER40      -0.1936
     59  CA        12.5840   -4.1460   34.0640 C.3    40  SER40       0.2055
     60  C         12.2010   -5.5630   33.6430 C.2    40  SER40       0.2643
     61  O         11.2310   -6.1280   34.1600 O.2    40  SER40      -0.2714
     62  CB        13.3980   -4.1620   35.3390 C.3    40  SER40       0.2130
     63  OG        14.1210   -5.3690   35.4030 O.3    40  SER40      -0.2179
     64  N         12.9260   -6.1360   32.6940 N.am   41  ASP41      -0.1957
     65  CA        12.5960   -7.4990   32.2840 C.3    41  ASP41       0.1840
     66  C         13.7160   -8.4930   32.5570 C.2    41  ASP41       0.2622
     67  O         13.6750   -9.6150   32.0630 O.2    41  ASP41      -0.2715
     68  CB        12.1540   -7.5610   30.8100 C.3    41  ASP41       0.1450
     69  CG        13.2100   -7.0210   29.8320 C.2    41  ASP41       0.3671
     70  OD1       14.2680   -6.5160   30.2850 O.co2  41  ASP41      -0.2456
     71  OD2       12.9570   -7.0860   28.6000 O.co2  41  ASP41      -0.2456
     72  N         14.7050   -8.0630   33.3420 N.am   42  ASN42      -0.1972
     73  CA        15.8600   -8.8790   33.6640 C.3    42  ASN42       0.1688
     74  C         15.9840   -9.1360   35.1440 C.2    42  ASN42       0.2292
     75  O         17.0820   -9.3490   35.6520 O.2    42  ASN42      -0.2864
     76  CB        17.1420   -8.2310   33.1460 C.3    42  ASN42       0.1181
     77  CG        17.2600   -6.7530   33.5370 C.2    42  ASN42       0.2629
     78  OD1       17.2250   -6.3920   34.7210 O.2    42  ASN42      -0.2716
     79  ND2       17.4060   -5.8910   32.5290 N.am   42  ASN42      -0.0877
     80  N         15.7820   -3.6760   43.8100 N.3    69  TRP69      -0.1241
     81  CA        16.4450   -3.1250   42.6300 C.3    69  TRP69       0.1605
     82  C         17.9640   -3.3030   42.7340 C.2    69  TRP69       0.2264
     83  O         18.4640   -3.6980   43.7930 O.2    69  TRP69      -0.2867
     84  CB        16.0920   -1.6500   42.5420 C.3    69  TRP69       0.0550
     85  CG        16.5970   -0.9520   41.3000 C.ar   69  TRP69       0.0003
     86  CD1       17.2550    0.2500   41.2340 C.ar   69  TRP69       0.0946
     87  CD2       16.4630   -1.4120   39.9560 C.ar   69  TRP69       0.0152
     88  NE1       17.5400    0.5560   39.9310 N.ar   69  TRP69      -0.2442
     89  CE2       17.0590   -0.4430   39.1230 C.ar   69  TRP69       0.0810
     90  CE3       15.8950   -2.5540   39.3720 C.ar   69  TRP69       0.0012
     91  CZ2       17.0990   -0.5800   37.7120 C.ar   69  TRP69       0.0191
     92  CZ3       15.9380   -2.6990   37.9740 C.ar   69  TRP69       0.0001
     93  CH2       16.5310   -1.7080   37.1600 C.ar   69  TRP69       0.0015
     94  N          4.2010   -8.9380   35.7100 N.3    80  VAL80      -0.1245
     95  CA         3.6200   -9.0610   34.3880 C.3    80  VAL80       0.1561
     96  C          3.8060  -10.4910   33.8950 C.2    80  VAL80       0.2260
     97  O          2.8320  -11.2120   33.6960 O.2    80  VAL80      -0.2867
     98  CB         4.2210   -8.0460   33.4090 C.3    80  VAL80       0.0252
     99  CG1        3.6820   -8.2700   32.0190 C.3    80  VAL80       0.0019
    100  CG2        3.9200   -6.6400   33.8820 C.3    80  VAL80       0.0019
@<TRIPOS>BOND
     1    71    69   ar
     2    57    55   ar
     3    57    56   ar
     4    55    53   ar
     5    69    70   ar
     6    69    68    1
     7     8     7   ar
     8    56    54   ar
     9     9     7   ar
    10    53    52   ar
    11     7     6    1
    12    68    65    1
    13    54    52   ar
    14    52    51    1
    15     6     5    1
    16    99    98    1
    17    67    66    2
    18    65    66    1
    19    65    64    1
    20    79    77   am
    21     5     2    1
    22    66    72   am
    23    64    60   am
    24    40    39    2
    25    51    48    1
    26    76    77    1
    27    76    73    1
    28    72    73    1
    29    16    15    2
    30    98   100    1
    31    98    95    1
    32    77    78    2
    33    60    59    1
    34    60    61    2
    35    73    74    1
    36    97    96    2
    37    50    49    2
    38    47    48    1
    39    47    43   am
    40    96    95    1
    41    39    38    1
    42    39    41   am
    43    48    49    1
    44     2     1    1
    45     2     3    1
    46    49    58   am
    47    59    58    1
    48    59    62    1
    49    43    42    1
    50    43    44    2
    51    42    41    1
    52    42    45    1
    53    95    94    1
    54    15    17   am
    55    15    14    1
    56    38    37    1
    57     3     4    2
    58    74    75    2
    59    46    45    1
    60    62    63    1
    61    14    11    1
    62    32    31    2
    63    37    31   am
    64    11    10    1
    65    11    12    1
    66    31    30    1
    67    93    91   ar
    68    93    92   ar
    69    18    12   am
    70    18    19    1
    71    12    13    2
    72    91    89   ar
    73    21    20    2
    74    92    90   ar
    75    24    26   ar
    76    24    23   ar
    77    36    34   ar
    78    30    33    1
    79    30    29    1
    80    22    19    1
    81    22    23    1
    82    19    20    1
    83    26    28   ar
    84    33    34    1
    85    23    25   ar
    86    34    35   ar
    87    89    88   ar
    88    89    87   ar
    89    90    87   ar
    90    28    27   ar
    91    88    86   ar
    92    87    85   ar
    93    25    27   ar
    94    86    85   ar
    95    85    84    1
    96    84    81    1
    97    81    82    1
    98    81    80    1
    99    82    83    2
