@<TRIPOS>MOLECULE
tmp/2qqtA04.pdb
 115 113 0 0 0
SMALL
GASTEIGER

@<TRIPOS>ATOM
      1  N          9.6880    1.9580   19.6860 N.3   105  GLN105     -0.1245
      2  CA         8.7110    2.0110   20.7660 C.3   105  GLN105      0.1566
      3  C          7.3290    1.5480   20.2660 C.2   105  GLN105      0.2260
      4  O          6.5760    0.9040   20.9980 O.2   105  GLN105     -0.2867
      5  CB         8.6370    3.4320   21.3370 C.3   105  GLN105      0.0367
      6  CG         7.7110    3.5910   22.5420 C.3   105  GLN105      0.0905
      7  CD         7.7440    5.0060   23.1070 C.2   105  GLN105      0.2608
      8  OE1        7.8570    5.9830   22.3570 O.2   105  GLN105     -0.2717
      9  NE2        7.6290    5.1250   24.4270 N.am  105  GLN105     -0.0878
     10  N          5.2270   -1.6260   21.7960 N.3   109  HIS109     -0.1241
     11  CA         3.9170   -1.5460   22.4210 C.3   109  HIS109      0.1621
     12  C          2.9150   -2.4130   21.6980 C.2   109  HIS109      0.2264
     13  O          1.8810   -2.7860   22.2580 O.2   109  HIS109     -0.2867
     14  CB         3.4300   -0.0960   22.4910 C.3   109  HIS109      0.0745
     15  CG         4.1730    0.7370   23.4900 C.ar  109  HIS109      0.0817
     16  ND1        3.7730    2.0070   23.8440 N.ar  109  HIS109     -0.2268
     17  CD2        5.3190    0.4990   24.1730 C.ar  109  HIS109      0.1154
     18  CE1        4.6430    2.5200   24.6940 C.ar  109  HIS109      0.1986
     19  NE2        5.5920    1.6250   24.9110 N.ar  109  HIS109     -0.2212
     20  N          3.0200   -5.8550   26.9830 N.3   113  PHE113     -0.1241
     21  CA         2.6520   -4.9290   28.0260 C.3   113  PHE113      0.1605
     22  C          2.3480   -5.7110   29.2930 C.2   113  PHE113      0.2264
     23  O          1.4210   -6.5150   29.3170 O.2   113  PHE113     -0.2867
     24  CB         1.4410   -4.0960   27.6290 C.3   113  PHE113      0.0534
     25  CG         1.0540   -3.0830   28.6640 C.ar  113  PHE113     -0.0203
     26  CD1        2.0320   -2.3790   29.3520 C.ar  113  PHE113     -0.0042
     27  CD2       -0.2830   -2.8240   28.9450 C.ar  113  PHE113     -0.0042
     28  CE1        1.6870   -1.4360   30.2980 C.ar  113  PHE113     -0.0003
     29  CE2       -0.6430   -1.8780   29.8930 C.ar  113  PHE113     -0.0003
     30  CZ         0.3450   -1.1800   30.5740 C.ar  113  PHE113     -0.0000
     31  N         -2.8520    1.7590   26.1080 N.3   253  PHE253     -0.1227
     32  CA        -2.8330    2.7250   27.1960 C.3   253  PHE253      0.1736
     33  C         -1.6120    3.6240   27.4290 C.2   253  PHE253      0.2595
     34  O         -1.7170    4.6290   28.1300 O.2   253  PHE253     -0.2718
     35  CB        -3.2210    2.0040   28.4900 C.3   253  PHE253      0.0547
     36  CG        -4.6450    1.5080   28.4830 C.ar  253  PHE253     -0.0202
     37  CD1       -5.0030    0.3680   27.7640 C.ar  253  PHE253     -0.0042
     38  CD2       -5.6450    2.2250   29.1360 C.ar  253  PHE253     -0.0042
     39  CE1       -6.3360   -0.0440   27.6950 C.ar  253  PHE253     -0.0003
     40  CE2       -6.9830    1.8220   29.0740 C.ar  253  PHE253     -0.0003
     41  CZ        -7.3280    0.6880   28.3520 C.ar  253  PHE253     -0.0000
     42  N         -0.4720    3.2990   26.8320 N.am  254  ARG254     -0.1980
     43  CA         0.7330    4.1050   27.0290 C.3   254  ARG254      0.1597
     44  C          0.8810    5.1940   25.9650 C.2   254  ARG254      0.2287
     45  O          1.8770    5.9290   25.9230 O.2   254  ARG254     -0.2864
     46  CB         1.8330    3.1570   26.8920 C.3   254  ARG254      0.0334
     47  CG         1.5360    1.9260   27.7460 C.3   254  ARG254      0.0492
     48  CD         2.4000    0.7390   27.3840 C.3   254  ARG254      0.2205
     49  NE         1.9500   -0.0160   26.4730 N.pl3 254  ARG254     -0.0865
     50  CZ         2.4620   -1.1700   26.0950 C.cat 254  ARG254      0.5346
     51  NH1        3.5200   -1.6600   26.7370 N.pl3 254  ARG254      0.1354
     52  NH2        1.9290   -1.8300   25.0800 N.pl3 254  ARG254      0.1354
     53  N          2.3910    8.6780   26.8350 N.3   257  GLU257     -0.1245
     54  CA         3.6530    8.6790   27.6490 C.3   257  GLU257      0.1567
     55  C          4.6340    9.7450   27.2480 C.2   257  GLU257      0.2260
     56  O          5.4040   10.2290   28.0840 O.2   257  GLU257     -0.2867
     57  CB         4.5000    7.3900   27.5420 C.3   257  GLU257      0.0388
     58  CG         5.8520    7.4450   28.3110 C.3   257  GLU257      0.1160
     59  CD         7.1450    7.7440   27.5180 C.2   257  GLU257      0.3649
     60  OE1        7.0650    7.8950   26.2810 O.co2 257  GLU257     -0.2457
     61  OE2        8.2240    7.8200   28.1540 O.co2 257  GLU257     -0.2457
     62  N          3.5460   12.7640   28.9450 N.3   380  PHE380     -0.1241
     63  CA         2.1200   13.0070   29.1870 C.3   380  PHE380      0.1605
     64  C          1.6620   14.4130   28.8280 C.2   380  PHE380      0.2264
     65  O          0.7260   14.9450   29.4250 O.2   380  PHE380     -0.2867
     66  CB         1.7900   12.7170   30.6440 C.3   380  PHE380      0.0534
     67  CG         1.8180   11.2800   30.9640 C.ar  380  PHE380     -0.0203
     68  CD1        0.8030   10.4470   30.5100 C.ar  380  PHE380     -0.0042
     69  CD2        2.8780   10.7350   31.6500 C.ar  380  PHE380     -0.0042
     70  CE1        0.8430    9.1030   30.7290 C.ar  380  PHE380     -0.0003
     71  CE2        2.9230    9.3960   31.8700 C.ar  380  PHE380     -0.0003
     72  CZ         1.8920    8.5780   31.4020 C.ar  380  PHE380     -0.0000
     73  N         11.9860   11.4070   35.0100 N.3   420  LEU420     -0.1231
     74  CA        10.8690   10.6810   34.4130 C.3   420  LEU420      0.1693
     75  C          9.5830   10.8840   35.2000 C.2   420  LEU420      0.2592
     76  O          9.5940   10.8720   36.4280 O.2   420  LEU420     -0.2718
     77  CB        11.1700    9.1850   34.3550 C.3   420  LEU420      0.0284
     78  CG        10.0350    8.2870   33.8430 C.3   420  LEU420      0.0019
     79  CD1        9.8260    8.4970   32.3440 C.3   420  LEU420      0.0001
     80  CD2       10.3910    6.8490   34.1420 C.3   420  LEU420      0.0001
     81  N          8.4750   11.0530   34.4850 N.am  421  PHE421     -0.1962
     82  CA         7.1720   11.2530   35.1130 C.3   421  PHE421      0.1771
     83  C          6.3070    9.9990   35.0720 C.2   421  PHE421      0.2619
     84  O          6.1170    9.3740   34.0350 O.2   421  PHE421     -0.2715
     85  CB         6.4210   12.3960   34.4110 C.3   421  PHE421      0.0574
     86  CG         5.1330   12.8060   35.0940 C.ar  421  PHE421     -0.0200
     87  CD1        5.1420   13.7150   36.1610 C.ar  421  PHE421     -0.0042
     88  CD2        3.9110   12.2880   34.6660 C.ar  421  PHE421     -0.0042
     89  CE1        3.9530   14.1040   36.7910 C.ar  421  PHE421     -0.0003
     90  CE2        2.7180   12.6680   35.2850 C.ar  421  PHE421     -0.0003
     91  CZ         2.7410   13.5810   36.3520 C.ar  421  PHE421     -0.0000
     92  N          5.7640    9.6570   36.2510 N.am  422  GLN422     -0.1964
     93  CA         4.8560    8.5280   36.4440 C.3   422  GLN422      0.1718
     94  C          3.4070    9.2190   36.4800 C.2   422  GLN422      0.2458
     95  O          3.2340   10.3980   36.8190 O.2   422  GLN422     -0.2730
     96  CB         5.3660    7.5210   37.5560 C.3   422  GLN422      0.0407
     97  CG         6.6900    6.7530   37.2470 C.3   422  GLN422      0.0908
     98  CD         6.6240    5.3790   36.5180 C.2   422  GLN422      0.2608
     99  OE1        6.9920    4.3340   37.0790 O.2   422  GLN422     -0.2717
    100  NE2        6.1880    5.1830   35.2800 N.am  422  GLN422     -0.0878
    101  N          2.4460    8.3980   36.0830 N.am  423  PRO423     -0.2727
    102  CA         1.0040    8.7210   35.7950 C.3   423  PRO423      0.1402
    103  C          0.2300    9.1850   36.9310 C.2   423  PRO423      0.2269
    104  O         -0.5230   10.1680   37.0530 O.2   423  PRO423     -0.2865
    105  CB         0.4910    7.4230   35.2690 C.3   423  PRO423      0.0296
    106  CG         1.6600    6.9400   34.4620 C.3   423  PRO423      0.0237
    107  CD         2.9250    7.5290   35.0220 C.3   423  PRO423      0.0939
    108  N         14.0610    5.7550   34.9800 N.3   432  LEU432     -0.1245
    109  CA        13.6970    4.6640   34.0870 C.3   432  LEU432      0.1561
    110  C         14.7360    3.5350   34.0980 C.2   432  LEU432      0.2260
    111  O         14.3870    2.3570   33.9730 O.2   432  LEU432     -0.2867
    112  CB        13.5120    5.1970   32.6600 C.3   432  LEU432      0.0270
    113  CG        13.0930    4.1550   31.6210 C.3   432  LEU432      0.0019
    114  CD1       11.8480    3.4150   32.1050 C.3   432  LEU432      0.0001
    115  CD2       12.8200    4.8430   30.3020 C.3   432  LEU432      0.0001
@<TRIPOS>BOND
     1     1     2    1
     2     3     2    1
     3     3     4    2
     4     2     5    1
     5     5     6    1
     6    12    13    2
     7    12    11    1
     8    10    11    1
     9     8     7    2
    10    11    14    1
    11    14    15    1
    12     6     7    1
    13     7     9   am
    14    15    16   ar
    15    15    17   ar
    16    16    18   ar
    17    17    19   ar
    18    18    19   ar
    19    52    50    1
    20    45    44    2
    21    44    43    1
    22    50    49    2
    23    50    51    1
    24    31    32    1
    25    60    59   ar
    26    49    48    1
    27    42    43    1
    28    42    33   am
    29    53    54    1
    30    46    43    1
    31    46    47    1
    32    20    21    1
    33    32    33    1
    34    32    35    1
    35    55    54    1
    36    55    56    2
    37    48    47    1
    38    33    34    2
    39    59    61   ar
    40    59    58    1
    41    57    54    1
    42    57    58    1
    43    24    21    1
    44    24    25    1
    45    39    37   ar
    46    39    41   ar
    47    37    36   ar
    48    21    22    1
    49    41    40   ar
    50    36    35    1
    51    36    38   ar
    52    25    27   ar
    53    25    26   ar
    54    64    63    1
    55    64    65    2
    56    62    63    1
    57    27    29   ar
    58    40    38   ar
    59    63    66    1
    60    22    23    2
    61    26    28   ar
    62    29    30   ar
    63    28    30   ar
    64   115   113    1
    65    68    70   ar
    66    68    67   ar
    67    66    67    1
    68    70    72   ar
    69    67    69   ar
    70    72    71   ar
    71   113   114    1
    72   113   112    1
    73    69    71   ar
    74    79    78    1
    75   112   109    1
    76    78    80    1
    77    78    77    1
    78   111   110    2
    79    84    83    2
    80   109   110    1
    81   109   108    1
    82    77    74    1
    83    85    86    1
    84    85    82    1
    85    74    73    1
    86    74    75    1
    87   106   107    1
    88   106   105    1
    89    81    82    1
    90    81    75   am
    91    88    86   ar
    92    88    90   ar
    93   107   101    1
    94    83    82    1
    95    83    92   am
    96    86    87   ar
    97    75    76    2
    98   105   102    1
    99   100    98   am
   100    90    91   ar
   101   102   101    1
   102   102   103    1
   103   101    94   am
   104    87    89   ar
   105    92    93    1
   106    91    89   ar
   107    93    94    1
   108    93    96    1
   109    94    95    2
   110    98    99    2
   111    98    97    1
   112   103   104    2
   113    97    96    1
