@<TRIPOS>MOLECULE
tmp/2qqvA00.pdb
 137 134 0 0 0
SMALL
GASTEIGER

@<TRIPOS>ATOM
      1  N         38.2070   14.6770    1.4690 N.3    18  ASN18      -0.1225
      2  CA        37.8830   13.9860    2.7050 C.3    18  ASN18       0.1785
      3  C         36.8560   12.8620    2.4610 C.2    18  ASN18       0.2597
      4  O         36.9540   12.1460    1.4640 O.2    18  ASN18      -0.2718
      5  CB        37.3800   15.0190    3.7170 C.3    18  ASN18       0.1169
      6  CG        37.6360   14.6180    5.1430 C.2    18  ASN18       0.2627
      7  OD1       38.2370   13.5830    5.4100 O.2    18  ASN18      -0.2716
      8  ND2       37.1740   15.4400    6.0770 N.am   18  ASN18      -0.0877
      9  N         35.8790   12.7210    3.3590 N.am   19  ASP19      -0.1974
     10  CA        34.8690   11.6530    3.2960 C.3    19  ASP19       0.1709
     11  C         34.0140   11.7110    2.0300 C.2    19  ASP19       0.2293
     12  O         33.7550   12.7990    1.5160 O.2    19  ASP19      -0.2864
     13  CB        33.9100   11.7460    4.4910 C.3    19  ASP19       0.1436
     14  CG        34.6150   11.7620    5.8340 C.2    19  ASP19       0.3671
     15  OD1       35.8640   11.8050    5.8810 O.co2  19  ASP19      -0.2456
     16  OD2       33.8970   11.7300    6.8570 O.co2  19  ASP19      -0.2456
     17  N         33.6310   15.9330    1.1010 N.3    35  GLN35      -0.1245
     18  CA        34.2590   16.9820    1.9000 C.3    35  GLN35       0.1566
     19  C         35.4820   17.5240    1.1700 C.2    35  GLN35       0.2260
     20  O         36.3730   16.7600    0.7870 O.2    35  GLN35      -0.2867
     21  CB        34.6630   16.4350    3.2700 C.3    35  GLN35       0.0367
     22  CG        33.5170   15.8970    4.1020 C.3    35  GLN35       0.0905
     23  CD        32.7480   16.9970    4.7950 C.2    35  GLN35       0.2608
     24  OE1       33.2350   17.6000    5.7490 O.2    35  GLN35      -0.2717
     25  NE2       31.5380   17.2660    4.3200 N.am   35  GLN35      -0.0878
     26  N         43.1640   19.8380    5.7010 N.3    43  TRP43      -0.1241
     27  CA        41.7730   19.9790    6.1420 C.3    43  TRP43       0.1605
     28  C         41.4710   21.4280    6.5440 C.2    43  TRP43       0.2264
     29  O         42.2670   22.0640    7.2410 O.2    43  TRP43      -0.2867
     30  CB        41.4850   19.0260    7.3070 C.3    43  TRP43       0.0550
     31  CG        40.0230   18.8650    7.6260 C.ar   43  TRP43       0.0003
     32  CD1       39.1810   17.9000    7.1480 C.ar   43  TRP43       0.0946
     33  CD2       39.2330   19.6910    8.4940 C.ar   43  TRP43       0.0152
     34  NE1       37.9170   18.0740    7.6620 N.ar   43  TRP43      -0.2442
     35  CE2       37.9210   19.1650    8.4910 C.ar   43  TRP43       0.0810
     36  CE3       39.5060   20.8260    9.2730 C.ar   43  TRP43       0.0012
     37  CZ2       36.8810   19.7350    9.2390 C.ar   43  TRP43       0.0191
     38  CZ3       38.4730   21.3920   10.0150 C.ar   43  TRP43       0.0001
     39  CH2       37.1760   20.8440    9.9920 C.ar   43  TRP43       0.0015
     40  N         29.9130   19.4280    7.4890 N.3    78  TRP78      -0.1227
     41  CA        30.5260   18.1130    7.6480 C.3    78  TRP78       0.1737
     42  C         29.7220   17.0010    6.9690 C.2    78  TRP78       0.2596
     43  O         28.7170   17.2650    6.3030 O.2    78  TRP78      -0.2718
     44  CB        30.7730   17.8220    9.1350 C.3    78  TRP78       0.0564
     45  CG        31.8550   18.6920    9.7510 C.ar   78  TRP78       0.0003
     46  CD1       32.4480   19.7900    9.1890 C.ar   78  TRP78       0.0946
     47  CD2       32.4400   18.5490   11.0530 C.ar   78  TRP78       0.0152
     48  NE1       33.3720   20.3270   10.0490 N.ar   78  TRP78      -0.2442
     49  CE2       33.3880   19.5870   11.2020 C.ar   78  TRP78       0.0810
     50  CE3       32.2600   17.6420   12.1070 C.ar   78  TRP78       0.0012
     51  CZ2       34.1540   19.7450   12.3640 C.ar   78  TRP78       0.0191
     52  CZ3       33.0250   17.7980   13.2630 C.ar   78  TRP78       0.0001
     53  CH2       33.9570   18.8430   13.3810 C.ar   78  TRP78       0.0015
     54  N         30.1830   15.7640    7.1350 N.am   79  SER79      -0.1952
     55  CA        29.6420   14.6150    6.4140 C.3    79  SER79       0.1924
     56  C         28.1610   14.3380    6.6750 C.2    79  SER79       0.2314
     57  O         27.5890   14.7970    7.6680 O.2    79  SER79      -0.2863
     58  CB        30.4740   13.3690    6.7150 C.3    79  SER79       0.2116
     59  OG        31.7780   13.5050    6.1860 O.3    79  SER79      -0.2180
     60  N         27.8190   13.5940   15.0880 N.3   144  ARG144     -0.1231
     61  CA        27.9320   13.8440   13.6530 C.3   144  ARG144      0.1694
     62  C         27.6850   12.6150   12.7750 C.2   144  ARG144      0.2592
     63  O         27.5670   11.4940   13.2760 O.2   144  ARG144     -0.2718
     64  CB        29.3040   14.4610   13.3390 C.3   144  ARG144      0.0321
     65  CG        30.4760   13.4950   13.4120 C.3   144  ARG144      0.0489
     66  CD        31.7920   14.2360   13.3400 C.3   144  ARG144      0.2205
     67  NE        32.3790   14.4330   14.6630 N.pl3 144  ARG144     -0.0865
     68  CZ        33.4570   13.7960   15.1140 C.cat 144  ARG144      0.5346
     69  NH1       34.0920   12.9130   14.3510 N.pl3 144  ARG144      0.1354
     70  NH2       33.9060   14.0460   16.3350 N.pl3 144  ARG144      0.1354
     71  N         27.6090   12.8610   11.4660 N.am  145  ASP145     -0.1974
     72  CA        27.5010   11.8310   10.4200 C.3   145  ASP145      0.1709
     73  C         26.1760   11.0580   10.4280 C.2   145  ASP145      0.2293
     74  O         26.1590    9.8660   10.7380 O.2   145  ASP145     -0.2864
     75  CB        28.7000   10.8660   10.4600 C.3   145  ASP145      0.1436
     76  CG        30.0460   11.5850   10.4420 C.2   145  ASP145      0.3671
     77  OD1       30.0850   12.7990   10.1430 O.co2 145  ASP145     -0.2456
     78  OD2       31.0720   10.9280   10.7280 O.co2 145  ASP145     -0.2456
     79  N         32.1830    7.2780   14.6150 N.3   199  ALA199     -0.1231
     80  CA        32.0220    8.1150   13.4230 C.3   199  ALA199      0.1694
     81  C         31.4920    7.3230   12.2280 C.2   199  ALA199      0.2592
     82  O         31.4460    6.0900   12.2690 O.2   199  ALA199     -0.2718
     83  CB        33.3380    8.8050   13.0750 C.3   199  ALA199      0.0304
     84  N         31.0910    8.0450   11.1780 N.am  200  CYS200     -0.1970
     85  CA        30.5340    7.4650    9.9460 C.3   200  CYS200      0.1712
     86  C         29.7900    6.1400   10.1340 C.2   200  CYS200      0.2296
     87  O         30.2570    5.0950    9.6710 O.2   200  CYS200     -0.2864
     88  CB        31.6180    7.3150    8.8720 C.3   200  CYS200      0.0983
     89  SG        31.4430    8.4320    7.4610 S.3   200  CYS200     -0.0798
     90  N         37.2000    6.3460   15.5090 N.3   235  ASP235     -0.1239
     91  CA        38.1070    7.4850   15.4120 C.3   235  ASP235      0.1674
     92  C         39.4300    7.2200   16.1300 C.2   235  ASP235      0.2266
     93  O         40.4720    7.7610   15.7490 O.2   235  ASP235     -0.2867
     94  CB        37.4400    8.7520   15.9520 C.3   235  ASP235      0.1410
     95  CG        38.0580   10.0220   15.3900 C.2   235  ASP235      0.3668
     96  OD1       38.3600   10.9360   16.1870 O.co2 235  ASP235     -0.2456
     97  OD2       38.2470   10.1090   14.1540 O.co2 235  ASP235     -0.2456
     98  N         41.1630    4.6880   13.6250 N.3   238  LYS238     -0.1245
     99  CA        41.0820    5.1870   12.2400 C.3   238  LYS238      0.1561
    100  C         40.7850    4.1010   11.1960 C.2   238  LYS238      0.2260
    101  O         41.3300    4.1270   10.0880 O.2   238  LYS238     -0.2867
    102  CB        42.3250    6.0140   11.8570 C.3   238  LYS238      0.0271
    103  CG        42.4530    7.3610   12.5810 C.3   238  LYS238      0.0035
    104  CD        41.4220    8.3840   12.0950 C.3   238  LYS238      0.0206
    105  CE        41.7250    9.7890   12.6020 C.3   238  LYS238      0.1093
    106  NZ        41.3820    9.9580   14.0370 N.3   238  LYS238     -0.1314
    107  N         38.8850    4.5930    5.1110 N.3   275  TYR275     -0.1227
    108  CA        38.1210    5.2440    6.1740 C.3   275  TYR275      0.1736
    109  C         36.8550    5.9460    5.6810 C.2   275  TYR275      0.2595
    110  O         36.7320    6.2660    4.4960 O.2   275  TYR275     -0.2718
    111  CB        39.0200    6.2260    6.9280 C.3   275  TYR275      0.0548
    112  CG        38.5210    6.6040    8.3030 C.ar  275  TYR275     -0.0200
    113  CD1       38.3310    5.6380    9.2900 C.ar  275  TYR275     -0.0009
    114  CD2       38.2570    7.9320    8.6250 C.ar  275  TYR275     -0.0009
    115  CE1       37.8780    5.9860   10.5620 C.ar  275  TYR275      0.0417
    116  CE2       37.8060    8.2910    9.8920 C.ar  275  TYR275      0.0417
    117  CZ        37.6180    7.3140   10.8530 C.ar  275  TYR275      0.1957
    118  OH        37.1720    7.6690   12.1040 O.3   275  TYR275     -0.2866
    119  N         35.9230    6.1660    6.6130 N.am  276  ALA276     -0.1980
    120  CA        34.6550    6.8770    6.3810 C.3   276  ALA276      0.1597
    121  C         33.8080    6.3000    5.2430 C.2   276  ALA276      0.2287
    122  O         33.3510    7.0320    4.3650 O.2   276  ALA276     -0.2864
    123  CB        34.9030    8.3710    6.1770 C.3   276  ALA276      0.0319
    124  N         37.1340    6.3630    1.5300 N.3   293  TRP293     -0.1241
    125  CA        38.1570    7.4030    1.4550 C.3   293  TRP293      0.1605
    126  C         39.5330    6.8660    1.8440 C.2   293  TRP293      0.2264
    127  O         39.7060    6.2570    2.9030 O.2   293  TRP293     -0.2867
    128  CB        37.7700    8.6190    2.3120 C.3   293  TRP293      0.0550
    129  CG        38.8860    9.6240    2.5340 C.ar  293  TRP293      0.0003
    130  CD1       39.6890   10.1900    1.5810 C.ar  293  TRP293      0.0946
    131  CD2       39.2990   10.1880    3.7880 C.ar  293  TRP293      0.0152
    132  NE1       40.5820   11.0580    2.1650 N.ar  293  TRP293     -0.2442
    133  CE2       40.3630   11.0780    3.5170 C.ar  293  TRP293      0.0810
    134  CE3       38.8740   10.0260    5.1150 C.ar  293  TRP293      0.0012
    135  CZ2       41.0070   11.8050    4.5230 C.ar  293  TRP293      0.0191
    136  CZ3       39.5180   10.7470    6.1160 C.ar  293  TRP293      0.0001
    137  CH2       40.5760   11.6210    5.8130 C.ar  293  TRP293      0.0015
@<TRIPOS>BOND
     1    20    19    2
     2    17    18    1
     3    19    18    1
     4   125   124    1
     5   125   126    1
     6   125   128    1
     7     4     3    2
     8     1     2    1
     9    12    11    2
    10   130   132   ar
    11   130   129   ar
    12   126   127    2
    13    18    21    1
    14    11    10    1
    15   132   133   ar
    16   128   129    1
    17     3     2    1
    18     3     9   am
    19   129   131   ar
    20     2     5    1
    21    21    22    1
    22    10     9    1
    23    10    13    1
    24   133   131   ar
    25   133   135   ar
    26     5     6    1
    27   131   134   ar
    28    22    23    1
    29    25    23   am
    30   122   121    2
    31    13    14    1
    32   110   109    2
    33   135   137   ar
    34    23    24    2
    35   107   108    1
    36   134   136   ar
    37     6     7    2
    38     6     8   am
    39   121   120    1
    40   109   108    1
    41   109   119   am
    42    26    27    1
    43   137   136   ar
    44    14    15   ar
    45    14    16   ar
    46    27    28    1
    47    27    30    1
    48   108   111    1
    49   123   120    1
    50    59    58    1
    51    43    42    2
    52   120   119    1
    53    55    56    1
    54    55    58    1
    55    55    54    1
    56    28    29    2
    57    56    57    2
    58   111   112    1
    59    42    54   am
    60    42    41    1
    61    32    31   ar
    62    32    34   ar
    63    30    31    1
    64    89    88    1
    65    40    41    1
    66    31    33   ar
    67    41    44    1
    68    34    35   ar
    69   112   114   ar
    70   112   113   ar
    71    35    33   ar
    72    35    37   ar
    73    33    36   ar
    74   114   116   ar
    75    88    85    1
    76    44    45    1
    77    46    45   ar
    78    46    48   ar
    79    37    39   ar
    80    36    38   ar
    81   113   115   ar
    82    87    86    2
    83    45    47   ar
    84   116   117   ar
    85    85    86    1
    86    85    84    1
    87    39    38   ar
    88    48    49   ar
    89   101   100    2
    90    77    76   ar
    91    72    73    1
    92    72    75    1
    93    72    71    1
    94    73    74    2
    95    76    75    1
    96    76    78   ar
    97   115   117   ar
    98   117   118    1
    99    47    49   ar
   100    47    50   ar
   101    84    81   am
   102   100    99    1
   103    49    51   ar
   104    71    62   am
   105   102    99    1
   106   102   103    1
   107   104   103    1
   108   104   105    1
   109    50    52   ar
   110    81    82    2
   111    81    80    1
   112    99    98    1
   113    51    53   ar
   114   105   106    1
   115    62    63    2
   116    62    61    1
   117    83    80    1
   118    52    53   ar
   119    64    65    1
   120    64    61    1
   121    66    65    1
   122    66    67    1
   123    80    79    1
   124    61    60    1
   125    97    95   ar
   126    69    68    1
   127    67    68    2
   128    68    70    1
   129    95    94    1
   130    95    96   ar
   131    91    90    1
   132    91    94    1
   133    91    92    1
   134    93    92    2
