@<TRIPOS>MOLECULE
tmp/2qqvA01.pdb
 183 182 0 0 0
SMALL
GASTEIGER

@<TRIPOS>ATOM
      1  N         41.1630    4.6880   13.6250 N.3   238  LYS238     -0.1231
      2  CA        41.0820    5.1870   12.2400 C.3   238  LYS238      0.1693
      3  C         40.7850    4.1010   11.1960 C.2   238  LYS238      0.2592
      4  O         41.3300    4.1270   10.0880 O.2   238  LYS238     -0.2718
      5  CB        42.3250    6.0140   11.8570 C.3   238  LYS238      0.0285
      6  CG        42.4530    7.3610   12.5810 C.3   238  LYS238      0.0035
      7  CD        41.4220    8.3840   12.0950 C.3   238  LYS238      0.0206
      8  CE        41.7250    9.7890   12.6020 C.3   238  LYS238      0.1093
      9  NZ        41.3820    9.9580   14.0370 N.3   238  LYS238     -0.1314
     10  N         39.9050    3.1640   11.5550 N.am  239  HIS239     -0.1976
     11  CA        39.4820    2.0920   10.6470 C.3   239  HIS239      0.1656
     12  C         37.9640    1.9260   10.5900 C.2   239  HIS239      0.2291
     13  O         37.2430    2.3860   11.4790 O.2   239  HIS239     -0.2864
     14  CB        40.1270    0.7570   11.0350 C.3   239  HIS239      0.0771
     15  CG        41.6230    0.7870   11.0610 C.ar  239  HIS239      0.0820
     16  ND1       42.3790    1.2120    9.9910 N.ar  239  HIS239     -0.2267
     17  CD2       42.5010    0.4250   12.0240 C.ar  239  HIS239      0.1154
     18  CE1       43.6600    1.1230   10.2970 C.ar  239  HIS239      0.1986
     19  NE2       43.7620    0.6460   11.5250 N.ar  239  HIS239     -0.2212
     20  N         44.6070    1.2120    4.0620 N.3   273  LYS273     -0.1231
     21  CA        44.1840    2.5950    4.2430 C.3   273  LYS273      0.1693
     22  C         42.7800    2.7760    3.6780 C.2   273  LYS273      0.2592
     23  O         42.5850    2.7850    2.4610 O.2   273  LYS273     -0.2718
     24  CB        45.1760    3.5530    3.5770 C.3   273  LYS273      0.0285
     25  CG        45.0980    4.9930    4.0810 C.3   273  LYS273      0.0035
     26  CD        45.8020    5.1770    5.4300 C.3   273  LYS273      0.0206
     27  CE        47.3070    5.3800    5.2750 C.3   273  LYS273      0.1093
     28  NZ        47.6510    6.6610    4.5970 N.3   273  LYS273     -0.1314
     29  N         41.8060    2.9180    4.5730 N.am  274  TYR274     -0.1962
     30  CA        40.3980    2.9240    4.1920 C.3   274  TYR274      0.1771
     31  C         39.5240    3.4470    5.3280 C.2   274  TYR274      0.2619
     32  O         39.4220    2.8150    6.3830 O.2   274  TYR274     -0.2715
     33  CB        39.9770    1.5020    3.8220 C.3   274  TYR274      0.0574
     34  CG        38.7240    1.4020    2.9950 C.ar  274  TYR274     -0.0198
     35  CD1       38.7610    1.5920    1.6150 C.ar  274  TYR274     -0.0009
     36  CD2       37.5060    1.0850    3.5850 C.ar  274  TYR274     -0.0009
     37  CE1       37.6140    1.4890    0.8500 C.ar  274  TYR274      0.0417
     38  CE2       36.3560    0.9760    2.8280 C.ar  274  TYR274      0.0417
     39  CZ        36.4130    1.1830    1.4640 C.ar  274  TYR274      0.1957
     40  OH        35.2670    1.0780    0.7140 O.3   274  TYR274     -0.2866
     41  N         38.8850    4.5930    5.1110 N.am  275  TYR275     -0.1974
     42  CA        38.1210    5.2440    6.1740 C.3   275  TYR275      0.1639
     43  C         36.8550    5.9460    5.6810 C.2   275  TYR275      0.2290
     44  O         36.7320    6.2660    4.4960 O.2   275  TYR275     -0.2864
     45  CB        39.0200    6.2260    6.9280 C.3   275  TYR275      0.0560
     46  CG        38.5210    6.6040    8.3030 C.ar  275  TYR275     -0.0198
     47  CD1       38.3310    5.6380    9.2900 C.ar  275  TYR275     -0.0009
     48  CD2       38.2570    7.9320    8.6250 C.ar  275  TYR275     -0.0009
     49  CE1       37.8780    5.9860   10.5620 C.ar  275  TYR275      0.0417
     50  CE2       37.8060    8.2910    9.8920 C.ar  275  TYR275      0.0417
     51  CZ        37.6180    7.3140   10.8530 C.ar  275  TYR275      0.1957
     52  OH        37.1720    7.6690   12.1040 O.3   275  TYR275     -0.2866
     53  N         37.1340    6.3630    1.5300 N.3   293  TRP293     -0.1241
     54  CA        38.1570    7.4030    1.4550 C.3   293  TRP293      0.1605
     55  C         39.5330    6.8660    1.8440 C.2   293  TRP293      0.2264
     56  O         39.7060    6.2570    2.9030 O.2   293  TRP293     -0.2867
     57  CB        37.7700    8.6190    2.3120 C.3   293  TRP293      0.0550
     58  CG        38.8860    9.6240    2.5340 C.ar  293  TRP293      0.0003
     59  CD1       39.6890   10.1900    1.5810 C.ar  293  TRP293      0.0946
     60  CD2       39.2990   10.1880    3.7880 C.ar  293  TRP293      0.0152
     61  NE1       40.5820   11.0580    2.1650 N.ar  293  TRP293     -0.2442
     62  CE2       40.3630   11.0780    3.5170 C.ar  293  TRP293      0.0810
     63  CE3       38.8740   10.0260    5.1150 C.ar  293  TRP293      0.0012
     64  CZ2       41.0070   11.8050    4.5230 C.ar  293  TRP293      0.0191
     65  CZ3       39.5180   10.7470    6.1160 C.ar  293  TRP293      0.0001
     66  CH2       40.5760   11.6210    5.8130 C.ar  293  TRP293      0.0015
     67  N         43.2170    8.3490    2.4640 N.3   295  ASN295     -0.1225
     68  CA        44.0330    9.5430    2.6090 C.3   295  ASN295      0.1785
     69  C         45.4840    9.3000    2.1950 C.2   295  ASN295      0.2597
     70  O         45.8620    8.1800    1.8460 O.2   295  ASN295     -0.2718
     71  CB        43.9280   10.1220    4.0260 C.3   295  ASN295      0.1169
     72  CG        44.8370    9.4300    5.0200 C.2   295  ASN295      0.2627
     73  OD1       45.1220    8.2390    4.8990 O.2   295  ASN295     -0.2716
     74  ND2       45.2990   10.1910    6.0170 N.am  295  ASN295     -0.0877
     75  N         46.2830   10.3600    2.2420 N.am  296  GLU296     -0.1965
     76  CA        47.6560   10.3400    1.7550 C.3   296  GLU296      0.1733
     77  C         48.6050    9.6690    2.7520 C.2   296  GLU296      0.2617
     78  O         48.5140    9.9050    3.9610 O.2   296  GLU296     -0.2715
     79  CB        48.1010   11.7770    1.4740 C.3   296  GLU296      0.0429
     80  CG        48.7370   11.9880    0.1130 C.3   296  GLU296      0.1163
     81  CD        47.7900   11.7160   -1.0490 C.2   296  GLU296      0.3649
     82  OE1       46.5800   12.0020   -0.9320 O.co2 296  GLU296     -0.2457
     83  OE2       48.2680   11.2210   -2.0910 O.co2 296  GLU296     -0.2457
     84  N         49.5060    8.8280    2.2440 N.am  297  SER297     -0.1936
     85  CA        50.5210    8.1740    3.0820 C.3   297  SER297      0.2055
     86  C         51.8380    8.9520    3.1180 C.2   297  SER297      0.2644
     87  O         52.7400    8.6310    3.8950 O.2   297  SER297     -0.2714
     88  CB        50.7680    6.7330    2.6260 C.3   297  SER297      0.2130
     89  OG        49.7030    5.8840    3.0150 O.3   297  SER297     -0.2179
     90  N         51.9360    9.9740    2.2740 N.am  298  SER298     -0.1935
     91  CA        53.1050   10.8440    2.2350 C.3   298  SER298      0.2055
     92  C         53.0220   11.9030    3.3300 C.2   298  SER298      0.2644
     93  O         51.9480   12.1480    3.8830 O.2   298  SER298     -0.2714
     94  CB        53.2320   11.5050    0.8590 C.3   298  SER298      0.2130
     95  OG        52.0290   12.1550    0.4900 O.3   298  SER298     -0.2179
     96  N         54.1620   12.5200    3.6400 N.am  299  SER299     -0.1935
     97  CA        54.2260   13.6120    4.6130 C.3   299  SER299      0.2055
     98  C         53.3550   14.7980    4.1840 C.2   299  SER299      0.2642
     99  O         53.1030   14.9940    2.9910 O.2   299  SER299     -0.2714
    100  CB        55.6770   14.0580    4.8240 C.3   299  SER299      0.2130
    101  OG        56.2550   14.5330    3.6190 O.3   299  SER299     -0.2179
    102  N         52.8930   15.5760    5.1630 N.am  300  VAL300     -0.1977
    103  CA        52.0180   16.7280    4.9090 C.3   300  VAL300      0.1596
    104  C         52.7330   17.7850    4.0610 C.2   300  VAL300      0.2287
    105  O         52.1150   18.4390    3.2180 O.2   300  VAL300     -0.2864
    106  CB        51.4710   17.3350    6.2320 C.3   300  VAL300      0.0276
    107  CG1       50.6080   18.5590    5.9640 C.3   300  VAL300      0.0022
    108  CG2       50.6730   16.2900    7.0070 C.3   300  VAL300      0.0022
    109  N         48.1630   -8.5570   10.7300 N.3   392  GLN392     -0.1231
    110  CA        49.0440   -7.4330   10.4060 C.3   392  GLN392      0.1698
    111  C         50.4200   -7.5960   11.0500 C.2   392  GLN392      0.2592
    112  O         51.4280   -7.1590   10.4940 O.2   392  GLN392     -0.2718
    113  CB        48.4210   -6.1040   10.8310 C.3   392  GLN392      0.0381
    114  CG        49.1290   -4.8880   10.2420 C.3   392  GLN392      0.0905
    115  CD        48.6870   -3.5720   10.8530 C.2   392  GLN392      0.2608
    116  OE1       48.2520   -3.5170   12.0010 O.2   392  GLN392     -0.2717
    117  NE2       48.8100   -2.4980   10.0850 N.am  392  GLN392     -0.0878
    118  N         50.4510   -8.2260   12.2210 N.am  393  LEU393     -0.1980
    119  CA        51.7060   -8.4880   12.9220 C.3   393  LEU393      0.1596
    120  C         52.5630   -9.5770   12.2650 C.2   393  LEU393      0.2287
    121  O         53.7910   -9.5260   12.3430 O.2   393  LEU393     -0.2864
    122  CB        51.4490   -8.8120   14.3970 C.3   393  LEU393      0.0297
    123  CG        51.7040   -7.6970   15.4170 C.3   393  LEU393      0.0022
    124  CD1       50.8890   -6.4340   15.1340 C.3   393  LEU393      0.0001
    125  CD2       51.4310   -8.2070   16.8240 C.3   393  LEU393      0.0001
    126  N         54.5270   -8.0070    9.2560 N.3   396  SER396     -0.1202
    127  CA        55.5670   -7.0550    9.6330 C.3   396  SER396      0.2020
    128  C         56.7370   -7.7190   10.3630 C.2   396  SER396      0.2618
    129  O         57.8730   -7.2560   10.2630 O.2   396  SER396     -0.2717
    130  CB        54.9800   -5.9120   10.4650 C.3   396  SER396      0.2103
    131  OG        54.2130   -6.4040   11.5480 O.3   396  SER396     -0.2182
    132  N         56.4510   -8.7970   11.0920 N.am  397  LYS397     -0.1979
    133  CA        57.4850   -9.5810   11.7710 C.3   397  LYS397      0.1596
    134  C         58.3610  -10.3120   10.7610 C.2   397  LYS397      0.2287
    135  O         59.5700  -10.4330   10.9570 O.2   397  LYS397     -0.2864
    136  CB        56.8680  -10.5930   12.7440 C.3   397  LYS397      0.0298
    137  CG        56.3830  -10.0110   14.0700 C.3   397  LYS397      0.0038
    138  CD        55.6260  -11.0640   14.8780 C.3   397  LYS397      0.0206
    139  CE        54.9610  -10.4700   16.1150 C.3   397  LYS397      0.1093
    140  NZ        54.1180  -11.4770   16.8310 N.3   397  LYS397     -0.1314
    141  N         54.8400    6.9150    4.7440 N.3   457  ASP457     -0.1225
    142  CA        54.2190    5.8920    5.5810 C.3   457  ASP457      0.1805
    143  C         54.4330    4.5070    4.9640 C.2   457  ASP457      0.2598
    144  O         53.8160    4.1580    3.9550 O.2   457  ASP457     -0.2718
    145  CB        52.7300    6.1760    5.7920 C.3   457  ASP457      0.1424
    146  CG        52.1170    5.3250    6.8960 C.2   457  ASP457      0.3668
    147  OD1       50.9320    5.5460    7.2260 O.co2 457  ASP457     -0.2456
    148  OD2       52.8110    4.4380    7.4380 O.co2 457  ASP457     -0.2456
    149  N         55.3150    3.7300    5.5870 N.am  458  LYS458     -0.1966
    150  CA        55.7200    2.4240    5.0700 C.3   458  LYS458      0.1728
    151  C         54.9860    1.2560    5.7430 C.2   458  LYS458      0.2617
    152  O         55.4210    0.1050    5.6380 O.2   458  LYS458     -0.2715
    153  CB        57.2370    2.2370    5.2370 C.3   458  LYS458      0.0311
    154  CG        58.1230    3.3220    4.6210 C.3   458  LYS458      0.0038
    155  CD        58.1460    3.2640    3.0950 C.3   458  LYS458      0.0206
    156  CE        59.5500    3.5110    2.5440 C.3   458  LYS458      0.1093
    157  NZ        60.1350    4.8130    2.9730 N.3   458  LYS458     -0.1314
    158  N         53.8780    1.5560    6.4260 N.am  459  THR459     -0.1937
    159  CA        53.1290    0.5600    7.2050 C.3   459  THR459      0.2028
    160  C         52.6670   -0.6200    6.3490 C.2   459  THR459      0.2643
    161  O         52.1110   -0.4370    5.2630 O.2   459  THR459     -0.2714
    162  CB        51.9190    1.1970    7.9480 C.3   459  THR459      0.1808
    163  OG1       52.3800    2.2580    8.7920 O.3   459  THR459     -0.2208
    164  CG2       51.1950    0.1730    8.8160 C.3   459  THR459      0.0379
    165  N         52.9260   -1.8240    6.8550 N.am  460  THR460     -0.1936
    166  CA        52.5330   -3.0670    6.2050 C.3   460  THR460      0.2028
    167  C         51.1600   -3.5060    6.7140 C.2   460  THR460      0.2642
    168  O         50.9190   -3.5340    7.9200 O.2   460  THR460     -0.2714
    169  CB        53.5860   -4.1740    6.4600 C.3   460  THR460      0.1808
    170  OG1       54.8470   -3.7600    5.9250 O.3   460  THR460     -0.2208
    171  CG2       53.1860   -5.4890    5.8090 C.3   460  THR460      0.0379
    172  N         50.2690   -3.8380    5.7830 N.am  461  TYR461     -0.1973
    173  CA        48.9090   -4.2620    6.1060 C.3   461  TYR461      0.1639
    174  C         48.7330   -5.7680    5.9180 C.2   461  TYR461      0.2290
    175  O         49.3600   -6.3650    5.0410 O.2   461  TYR461     -0.2864
    176  CB        47.9050   -3.5150    5.2330 C.3   461  TYR461      0.0560
    177  CG        48.0610   -2.0110    5.2340 C.ar  461  TYR461     -0.0198
    178  CD1       47.9690   -1.2790    6.4160 C.ar  461  TYR461     -0.0009
    179  CD2       48.2760   -1.3170    4.0470 C.ar  461  TYR461     -0.0009
    180  CE1       48.1070    0.1080    6.4140 C.ar  461  TYR461      0.0417
    181  CE2       48.4120    0.0680    4.0340 C.ar  461  TYR461      0.0417
    182  CZ        48.3260    0.7730    5.2190 C.ar  461  TYR461      0.1957
    183  OH        48.4560    2.1420    5.2100 O.3   461  TYR461     -0.2866
@<TRIPOS>BOND
     1    83    81   ar
     2    81    82   ar
     3    81    80    1
     4    80    79    1
     5    95    94    1
     6    40    39    1
     7    37    39   ar
     8    37    35   ar
     9    94    91    1
    10    54    53    1
    11    54    55    1
    12    54    57    1
    13    39    38   ar
    14    79    76    1
    15    59    61   ar
    16    59    58   ar
    17    35    34   ar
    18    76    75    1
    19    76    77    1
    20    55    56    2
    21    70    69    2
    22    61    62   ar
    23    69    75   am
    24    69    68    1
    25    91    90    1
    26    91    92    1
    27    84    77   am
    28    84    85    1
    29    90    86   am
    30    57    58    1
    31    23    22    2
    32    67    68    1
    33    58    60   ar
    34   156   157    1
    35   156   155    1
    36    68    71    1
    37    88    89    1
    38    88    85    1
    39    77    78    2
    40    38    36   ar
    41    99    98    2
    42    34    36   ar
    43    34    33    1
    44    85    86    1
    45   155   154    1
    46    86    87    2
    47   105   104    2
    48    92    96   am
    49    92    93    2
    50    62    60   ar
    51    62    64   ar
    52    24    25    1
    53    24    21    1
    54   101   100    1
    55    96    97    1
    56    22    21    1
    57    22    29   am
    58    60    63   ar
    59    33    30    1
    60   144   143    2
    61    71    72    1
    62   181   179   ar
    63   181   182   ar
    64   179   177   ar
    65   104   103    1
    66    20    21    1
    67    25    26    1
    68    98    97    1
    69    98   102   am
    70    30    29    1
    71    30    31    1
    72    44    43    2
    73    64    66   ar
    74    28    27    1
    75    97   100    1
    76   154   153    1
    77   141   142    1
    78    73    72    2
    79   103   102    1
    80   103   106    1
    81   143   142    1
    82   143   149   am
    83    72    74   am
    84   175   174    2
    85   150   153    1
    86   150   149    1
    87   150   151    1
    88    41    31   am
    89    41    42    1
    90    63    65   ar
    91   183   182    1
    92   182   180   ar
    93   176   177    1
    94   176   173    1
    95   177   178   ar
    96   161   160    2
    97    27    26    1
    98    31    32    2
    99   142   145    1
   100   152   151    2
   101    43    42    1
   102   151   158   am
   103   172   173    1
   104   172   167   am
   105   145   146    1
   106   171   169    1
   107    66    65   ar
   108   174   173    1
   109   170   169    1
   110   107   106    1
   111    42    45    1
   112   166   169    1
   113   166   167    1
   114   166   165    1
   115   106   108    1
   116   160   165   am
   117   160   159    1
   118   180   178   ar
   119   158   159    1
   120   167   168    2
   121   146   147   ar
   122   146   148   ar
   123    45    46    1
   124   159   162    1
   125   162   163    1
   126   162   164    1
   127    46    48   ar
   128    46    47   ar
   129    48    50   ar
   130   126   127    1
   131    47    49   ar
   132   127   128    1
   133   127   130    1
   134    50    51   ar
   135    16    18   ar
   136    16    15   ar
   137   117   115   am
   138     4     3    2
   139   114   113    1
   140   114   115    1
   141   129   128    2
   142    18    19   ar
   143   128   132   am
   144   110   109    1
   145   110   113    1
   146   110   111    1
   147   130   131    1
   148   112   111    2
   149    49    51   ar
   150    12    11    1
   151    12    13    2
   152    11    14    1
   153    11    10    1
   154   134   135    2
   155   134   133    1
   156    51    52    1
   157   115   116    2
   158    14    15    1
   159   111   118   am
   160    15    17   ar
   161   132   133    1
   162     3    10   am
   163     3     2    1
   164    19    17   ar
   165   133   136    1
   166     5     2    1
   167     5     6    1
   168     7     6    1
   169     7     8    1
   170   118   119    1
   171     2     1    1
   172   120   121    2
   173   120   119    1
   174     8     9    1
   175   136   137    1
   176   119   122    1
   177   137   138    1
   178   122   123    1
   179   138   139    1
   180   124   123    1
   181   123   125    1
   182   139   140    1
