@<TRIPOS>MOLECULE
tmp/2qqwA00.pdb
 152 150 0 0 0
SMALL
GASTEIGER

@<TRIPOS>ATOM
      1  N        -12.3010   25.9430  -13.0720 N.3   238  LYS238     -0.1231
      2  CA       -12.3750   25.5120  -11.6660 C.3   238  LYS238      0.1693
      3  C        -12.6910   26.6440  -10.6890 C.2   238  LYS238      0.2592
      4  O        -12.0770   26.7360   -9.6310 O.2   238  LYS238     -0.2718
      5  CB       -11.1230   24.7280  -11.2360 C.3   238  LYS238      0.0285
      6  CG       -11.2960   23.1930  -11.2590 C.3   238  LYS238      0.0035
      7  CD       -10.9870   22.5630  -12.6460 C.3   238  LYS238      0.0206
      8  CE       -11.2960   21.0590  -12.7060 C.3   238  LYS238      0.1093
      9  NZ       -12.7390   20.7860  -12.4430 N.3   238  LYS238     -0.1314
     10  N        -13.6540   27.4970  -11.0510 N.am  239  HIS239     -0.1976
     11  CA       -14.1060   28.5800  -10.1800 C.3   239  HIS239      0.1656
     12  C        -15.6150   28.6880  -10.1170 C.2   239  HIS239      0.2291
     13  O        -16.3240   28.2460  -11.0210 O.2   239  HIS239     -0.2864
     14  CB       -13.5580   29.9310  -10.6430 C.3   239  HIS239      0.0771
     15  CG       -12.0690   29.9860  -10.7320 C.ar  239  HIS239      0.0820
     16  ND1      -11.4130   30.5320  -11.8140 N.ar  239  HIS239     -0.2267
     17  CD2      -11.1050   29.5580   -9.8800 C.ar  239  HIS239      0.1154
     18  CE1      -10.1110   30.4420  -11.6220 C.ar  239  HIS239      0.1986
     19  NE2       -9.8980   29.8520  -10.4600 N.ar  239  HIS239     -0.2212
     20  N         -8.8250   29.5360   -3.6090 N.3   270  LYS270     -0.1231
     21  CA        -9.1970   28.1330   -3.7720 C.3   270  LYS270      0.1693
     22  C        -10.5650   27.8460   -3.1760 C.2   270  LYS270      0.2592
     23  O        -10.6970   27.6720   -1.9720 O.2   270  LYS270     -0.2718
     24  CB        -8.1500   27.2280   -3.1300 C.3   270  LYS270      0.0285
     25  CG        -8.2780   25.7740   -3.5250 C.3   270  LYS270      0.0035
     26  CD        -7.8810   25.5560   -4.9850 C.3   270  LYS270      0.0206
     27  CE        -6.3740   25.3850   -5.1220 C.3   270  LYS270      0.1093
     28  NZ        -5.8390   24.2400   -4.3070 N.3   270  LYS270     -0.1314
     29  N        -11.5780   27.7720   -4.0310 N.am  271  TYR271     -0.1962
     30  CA       -12.9720   27.6950   -3.5980 C.3   271  TYR271      0.1771
     31  C        -13.8000   27.1460   -4.7510 C.2   271  TYR271      0.2619
     32  O        -13.7570   27.6820   -5.8530 O.2   271  TYR271     -0.2715
     33  CB       -13.4550   29.1020   -3.2220 C.3   271  TYR271      0.0574
     34  CG       -14.7980   29.1650   -2.5450 C.ar  271  TYR271     -0.0198
     35  CD1      -14.9010   29.1180   -1.1560 C.ar  271  TYR271     -0.0009
     36  CD2      -15.9690   29.2840   -3.2900 C.ar  271  TYR271     -0.0009
     37  CE1      -16.1410   29.1700   -0.5220 C.ar  271  TYR271      0.0417
     38  CE2      -17.2140   29.3340   -2.6700 C.ar  271  TYR271      0.0417
     39  CZ       -17.2930   29.2760   -1.2880 C.ar  271  TYR271      0.1957
     40  OH       -18.5260   29.3330   -0.6700 O.3   271  TYR271     -0.2866
     41  N        -14.5620   26.0880   -4.5040 N.am  272  TYR272     -0.1974
     42  CA       -15.3170   25.4310   -5.5810 C.3   272  TYR272      0.1639
     43  C        -16.5250   24.6280   -5.1070 C.2   272  TYR272      0.2290
     44  O        -16.6350   24.2900   -3.9270 O.2   272  TYR272     -0.2864
     45  CB       -14.3960   24.5220   -6.3910 C.3   272  TYR272      0.0560
     46  CG       -14.9630   24.1180   -7.7300 C.ar  272  TYR272     -0.0198
     47  CD1      -15.0150   25.0240   -8.7880 C.ar  272  TYR272     -0.0009
     48  CD2      -15.4430   22.8270   -7.9470 C.ar  272  TYR272     -0.0009
     49  CE1      -15.5330   24.6450  -10.0340 C.ar  272  TYR272      0.0417
     50  CE2      -15.9620   22.4490   -9.1780 C.ar  272  TYR272      0.0417
     51  CZ       -16.0020   23.3610  -10.2100 C.ar  272  TYR272      0.1957
     52  OH       -16.5130   22.9880  -11.4260 O.3   272  TYR272     -0.2866
     53  N        -16.3900   24.2220   -0.9840 N.3   290  TRP290     -0.1241
     54  CA       -15.3270   23.2410   -0.9190 C.3   290  TRP290      0.1605
     55  C        -13.9830   23.8610   -1.3020 C.2   290  TRP290      0.2264
     56  O        -13.8410   24.4410   -2.3610 O.2   290  TRP290     -0.2867
     57  CB       -15.6750   22.0520   -1.8270 C.3   290  TRP290      0.0550
     58  CG       -14.5480   21.0870   -2.0940 C.ar  290  TRP290      0.0003
     59  CD1      -13.7260   20.4930   -1.1710 C.ar  290  TRP290      0.0946
     60  CD2      -14.1340   20.5890   -3.3760 C.ar  290  TRP290      0.0152
     61  NE1      -12.8220   19.6730   -1.8020 N.ar  290  TRP290     -0.2442
     62  CE2      -13.0470   19.7140   -3.1520 C.ar  290  TRP290      0.0810
     63  CE3      -14.5780   20.7970   -4.6930 C.ar  290  TRP290      0.0012
     64  CZ2      -12.4030   19.0420   -4.1920 C.ar  290  TRP290      0.0191
     65  CZ3      -13.9340   20.1290   -5.7310 C.ar  290  TRP290      0.0001
     66  CH2      -12.8550   19.2640   -5.4720 C.ar  290  TRP290      0.0015
     67  N        -10.2980   22.5030   -1.9380 N.3   292  ASN292     -0.1225
     68  CA        -9.4950   21.2990   -2.0580 C.3   292  ASN292      0.1785
     69  C         -8.0390   21.5440   -1.6500 C.2   292  ASN292      0.2597
     70  O         -7.6690   22.6630   -1.3010 O.2   292  ASN292     -0.2718
     71  CB        -9.6190   20.6900   -3.4610 C.3   292  ASN292      0.1169
     72  CG        -8.6850   21.3240   -4.4750 C.2   292  ASN292      0.2627
     73  OD1       -8.2590   22.4660   -4.3320 O.2   292  ASN292     -0.2716
     74  ND2       -8.3510   20.5590   -5.5030 N.am  292  ASN292     -0.0877
     75  N         -7.2200   20.4980   -1.6930 N.am  293  GLU293     -0.1965
     76  CA        -5.8420   20.5950   -1.2480 C.3   293  GLU293      0.1733
     77  C         -4.9750   21.2910   -2.2820 C.2   293  GLU293      0.2617
     78  O         -5.2220   21.1920   -3.4850 O.2   293  GLU293     -0.2715
     79  CB        -5.2680   19.2130   -0.9360 C.3   293  GLU293      0.0429
     80  CG        -6.0380   18.4320    0.0940 C.3   293  GLU293      0.1163
     81  CD        -6.0920   19.1180    1.4400 C.2   293  GLU293      0.3649
     82  OE1       -5.0320   19.2330    2.1030 O.co2 293  GLU293     -0.2457
     83  OE2       -7.2060   19.5260    1.8390 O.co2 293  GLU293     -0.2457
     84  N         -3.9660   22.0070   -1.7940 N.am  294  SER294     -0.1936
     85  CA        -2.9570   22.6100   -2.6480 C.3   294  SER294      0.2055
     86  C         -1.6720   21.7930   -2.5660 C.2   294  SER294      0.2643
     87  O         -0.7390   22.0010   -3.3340 O.2   294  SER294     -0.2714
     88  CB        -2.7300   24.0590   -2.2450 C.3   294  SER294      0.2130
     89  OG        -3.8930   24.8170   -2.5050 O.3   294  SER294     -0.2179
     90  N         -1.6440   20.8470   -1.6330 N.am  295  SER295     -0.1949
     91  CA        -0.5620   19.8790   -1.5380 C.3   295  SER295      0.1924
     92  C         -0.6080   18.9100   -2.7200 C.2   295  SER295      0.2314
     93  O         -1.5850   18.8810   -3.4750 O.2   295  SER295     -0.2863
     94  CB        -0.6690   19.1080   -0.2280 C.3   295  SER295      0.2116
     95  OG        -1.9250   18.4680   -0.1490 O.3   295  SER295     -0.2180
     96  N         -5.4660   39.0460  -10.1890 N.3   389  GLN389     -0.1231
     97  CA        -4.5780   37.9250   -9.8820 C.3   389  GLN389      0.1698
     98  C         -3.1820   38.0980  -10.4980 C.2   389  GLN389      0.2592
     99  O         -2.1760   37.8380   -9.8330 O.2   389  GLN389     -0.2718
    100  CB        -5.1890   36.5900  -10.2900 C.3   389  GLN389      0.0381
    101  CG        -4.2680   35.4230  -10.0090 C.3   389  GLN389      0.0905
    102  CD        -4.9190   34.0860  -10.2570 C.2   389  GLN389      0.2608
    103  OE1       -5.7810   33.9520  -11.1230 O.2   389  GLN389     -0.2717
    104  NE2       -4.5020   33.0780   -9.5000 N.am  389  GLN389     -0.0878
    105  N         -3.1290   38.5450  -11.7540 N.am  390  LEU390     -0.1980
    106  CA        -1.8520   38.7670  -12.4480 C.3   390  LEU390      0.1596
    107  C         -1.0290   39.8970  -11.8240 C.2   390  LEU390      0.2287
    108  O          0.1990   39.8260  -11.8010 O.2   390  LEU390     -0.2864
    109  CB        -2.0620   39.0230  -13.9470 C.3   390  LEU390      0.0297
    110  CG        -2.4930   37.8310  -14.8180 C.3   390  LEU390      0.0022
    111  CD1       -2.9360   38.3120  -16.2050 C.3   390  LEU390      0.0001
    112  CD2       -1.3940   36.7600  -14.9400 C.3   390  LEU390      0.0001
    113  N          0.5590   38.5060   -8.7660 N.3   393  SER393     -0.1217
    114  CA         1.5770   37.5850   -9.2890 C.3   393  SER393      0.1889
    115  C          2.9000   38.2500   -9.6680 C.2   393  SER393      0.2288
    116  O          3.9640   37.7440   -9.3210 O.2   393  SER393     -0.2866
    117  CB         1.0520   36.8490  -10.5150 C.3   393  SER393      0.2089
    118  OG         0.0880   35.9010  -10.1470 O.3   393  SER393     -0.2183
    119  N          1.0510   23.6670   -4.2930 N.3   454  ASP454     -0.1239
    120  CA         0.5250   24.7030   -5.1890 C.3   454  ASP454      0.1674
    121  C          0.6300   26.0810   -4.5380 C.2   454  ASP454      0.2266
    122  O         -0.1530   26.4310   -3.6480 O.2   454  ASP454     -0.2867
    123  CB        -0.9370   24.4170   -5.5440 C.3   454  ASP454      0.1410
    124  CG        -1.5100   25.4080   -6.5600 C.2   454  ASP454      0.3668
    125  OD1       -0.8050   26.3720   -6.9470 O.co2 454  ASP454     -0.2456
    126  OD2       -2.6780   25.2150   -6.9760 O.co2 454  ASP454     -0.2456
    127  N          0.2560   29.0320   -6.0440 N.3   456  THR456     -0.1203
    128  CA        -0.4670   30.0460   -6.8040 C.3   456  THR456      0.1994
    129  C         -0.9720   31.1890   -5.9140 C.2   456  THR456      0.2619
    130  O         -1.5800   30.9620   -4.8500 O.2   456  THR456     -0.2717
    131  CB        -1.6370   29.4040   -7.5940 C.3   456  THR456      0.1784
    132  OG1       -1.1130   28.3840   -8.4510 O.3   456  THR456     -0.2211
    133  CG2       -2.3800   30.4250   -8.4420 C.3   456  THR456      0.0376
    134  N         -0.7000   32.4130   -6.3560 N.am  457  THR457     -0.1938
    135  CA        -1.1450   33.6140   -5.6660 C.3   457  THR457      0.2028
    136  C         -2.5160   34.0420   -6.1630 C.2   457  THR457      0.2642
    137  O         -2.8070   33.9450   -7.3560 O.2   457  THR457     -0.2714
    138  CB        -0.1290   34.7570   -5.8470 C.3   457  THR457      0.1808
    139  OG1        1.0670   34.4370   -5.1220 O.3   457  THR457     -0.2208
    140  CG2       -0.6870   36.0770   -5.3420 C.3   457  THR457      0.0379
    141  N         -3.3540   34.5100   -5.2390 N.am  458  TYR458     -0.1973
    142  CA        -4.7200   34.9430   -5.5630 C.3   458  TYR458      0.1639
    143  C         -4.8750   36.4440   -5.4040 C.2   458  TYR458      0.2290
    144  O         -4.1880   37.0630   -4.5870 O.2   458  TYR458     -0.2864
    145  CB        -5.7410   34.2140   -4.6970 C.3   458  TYR458      0.0560
    146  CG        -5.5460   32.7210   -4.6700 C.ar  458  TYR458     -0.0198
    147  CD1       -5.5330   31.9750   -5.8410 C.ar  458  TYR458     -0.0009
    148  CD2       -5.3710   32.0440   -3.4610 C.ar  458  TYR458     -0.0009
    149  CE1       -5.3420   30.5970   -5.8090 C.ar  458  TYR458      0.0417
    150  CE2       -5.1870   30.6680   -3.4230 C.ar  458  TYR458      0.0417
    151  CZ        -5.1720   29.9570   -4.5970 C.ar  458  TYR458      0.1957
    152  OH        -5.0080   28.5930   -4.5510 O.3   458  TYR458     -0.2866
@<TRIPOS>BOND
     1   111   110    1
     2   112   110    1
     3   110   109    1
     4   109   106    1
     5     1     2    1
     6     8     7    1
     7     8     9    1
     8     7     6    1
     9   106   107    1
    10   106   105    1
    11   107   108    2
    12    16    18   ar
    13    16    15   ar
    14   105    98   am
    15     2     5    1
    16     2     3    1
    17    18    19   ar
    18    52    51    1
    19     6     5    1
    20   103   102    2
    21    10     3   am
    22    10    11    1
    23    13    12    2
    24    15    14    1
    25    15    17   ar
    26     3     4    2
    27    14    11    1
    28   117   118    1
    29   117   114    1
    30    98    97    1
    31    98    99    2
    32    19    17   ar
    33   100   101    1
    34   100    97    1
    35   102   101    1
    36   102   104   am
    37    51    49   ar
    38    51    50   ar
    39    96    97    1
    40    11    12    1
    41    49    47   ar
    42   115   116    2
    43   115   114    1
    44   114   113    1
    45    50    48   ar
    46    47    46   ar
    47   132   131    1
    48   133   131    1
    49    48    46   ar
    50    46    45    1
    51   131   128    1
    52   137   136    2
    53   126   124   ar
    54   125   124   ar
    55   128   127    1
    56   128   129    1
    57   124   123    1
    58    45    42    1
    59   134   129   am
    60   134   135    1
    61   136   135    1
    62   136   141   am
    63   129   130    2
    64    32    31    2
    65   138   135    1
    66   138   140    1
    67   138   139    1
    68   147   149   ar
    69   147   146   ar
    70   149   151   ar
    71    65    66   ar
    72    65    63   ar
    73    42    43    1
    74    42    41    1
    75   142   143    1
    76   142   141    1
    77   142   145    1
    78   123   120    1
    79    74    72   am
    80    66    64   ar
    81   143   144    2
    82   120   121    1
    83   120   119    1
    84    27    26    1
    85    27    28    1
    86    43    44    2
    87    26    25    1
    88    31    41   am
    89    31    30    1
    90   145   146    1
    91    63    60   ar
    92   146   148   ar
    93   151   152    1
    94   151   150   ar
    95   121   122    2
    96    72    73    2
    97    72    71    1
    98    64    62   ar
    99    29    30    1
   100    29    22   am
   101    21    20    1
   102    21    22    1
   103    21    24    1
   104    30    33    1
   105    25    24    1
   106    78    77    2
   107    93    92    2
   108   148   150   ar
   109    71    68    1
   110    60    62   ar
   111    60    58   ar
   112    87    86    2
   113    36    38   ar
   114    36    34   ar
   115    33    34    1
   116    22    23    2
   117    62    61   ar
   118    92    91    1
   119    38    39   ar
   120    85    86    1
   121    85    88    1
   122    85    84    1
   123    86    90   am
   124    34    35   ar
   125    89    88    1
   126    56    55    2
   127    77    84   am
   128    77    76    1
   129    58    57    1
   130    58    59   ar
   131    68    67    1
   132    68    69    1
   133    57    54    1
   134    61    59   ar
   135    75    69   am
   136    75    76    1
   137    69    70    2
   138    90    91    1
   139    91    94    1
   140    55    54    1
   141    39    40    1
   142    39    37   ar
   143    76    79    1
   144    35    37   ar
   145    53    54    1
   146    79    80    1
   147    94    95    1
   148    80    81    1
   149    81    83   ar
   150    81    82   ar
