@<TRIPOS>MOLECULE
tmp/2qrcF01.pdb
 132 126 0 0 0
SMALL
GASTEIGER

@<TRIPOS>ATOM
      1  N         38.2070   13.8850   28.0100 N.3    31  ARG31      -0.1231
      2  CA        37.1770   13.2690   27.1650 C.3    31  ARG31       0.1694
      3  C         36.4840   14.3580   26.3420 C.2    31  ARG31       0.2592
      4  O         36.4590   15.5140   26.7720 O.2    31  ARG31      -0.2718
      5  CB        36.1440   12.5250   28.0210 C.3    31  ARG31       0.0321
      6  CG        35.0340   13.4100   28.5170 C.3    31  ARG31       0.0489
      7  CD        34.0090   12.7080   29.3880 C.3    31  ARG31       0.2205
      8  NE        34.4030   12.7640   30.8050 N.pl3  31  ARG31      -0.0865
      9  CZ        34.5210   11.7150   31.6330 C.cat  31  ARG31       0.5346
     10  NH1       34.2640   10.4580   31.2320 N.pl3  31  ARG31       0.1354
     11  NH2       34.8780   11.9390   32.8940 N.pl3  31  ARG31       0.1354
     12  N         35.9150   14.0010   25.1800 N.am   32  LEU32      -0.1966
     13  CA        35.1140   14.9410   24.3790 C.3    32  LEU32       0.1728
     14  C         33.8360   14.3130   23.7960 C.2    32  LEU32       0.2616
     15  O         33.8680   13.4500   22.9060 O.2    32  LEU32      -0.2715
     16  CB        35.9630   15.5850   23.2950 C.3    32  LEU32       0.0311
     17  CG        35.2340   16.3170   22.1790 C.3    32  LEU32       0.0022
     18  CD1       34.7460   17.6710   22.6160 C.3    32  LEU32       0.0001
     19  CD2       36.1100   16.4210   20.9310 C.3    32  LEU32       0.0001
     20  N         32.6960   14.7560   24.3070 N.am   33  ILE33      -0.1977
     21  CA        31.4330   14.1980   23.8960 C.3    33  ILE33       0.1596
     22  C         30.9760   14.8690   22.6220 C.2    33  ILE33       0.2287
     23  O         30.8430   16.0800   22.5710 O.2    33  ILE33      -0.2864
     24  CB        30.3930   14.3340   25.0190 C.3    33  ILE33       0.0276
     25  CG1       30.8290   13.4600   26.2070 C.3    33  ILE33       0.0022
     26  CG2       29.0110   13.9570   24.5250 C.3    33  ILE33       0.0022
     27  CD1       29.9540   13.5820   27.4740 C.3    33  ILE33       0.0001
     28  N         25.8870   15.1600   32.3680 N.3    52  ASN52      -0.1225
     29  CA        26.0950   16.3610   33.1740 C.3    52  ASN52       0.1785
     30  C         26.6950   17.5170   32.3960 C.2    52  ASN52       0.2597
     31  O         27.5620   18.2030   32.8880 O.2    52  ASN52      -0.2718
     32  CB        26.9520   16.0320   34.4010 C.3    52  ASN52       0.1169
     33  CG        26.8130   17.0730   35.4960 C.2    52  ASN52       0.2627
     34  OD1       25.7070   17.3600   35.9500 O.2    52  ASN52      -0.2716
     35  ND2       27.9270   17.6560   35.9130 N.am   52  ASN52      -0.0877
     36  N         26.2450   17.7130   31.1650 N.am   53  ILE53      -0.1966
     37  CA        26.8360   18.7240   30.2920 C.3    53  ILE53       0.1727
     38  C         25.7510   19.5400   29.6000 C.2    53  ILE53       0.2616
     39  O         24.5980   19.0690   29.5160 O.2    53  ILE53      -0.2715
     40  CB        27.8050   18.1010   29.2440 C.3    53  ILE53       0.0290
     41  CG1       27.1590   16.9180   28.5240 C.3    53  ILE53       0.0022
     42  CG2       29.1470   17.6980   29.9050 C.3    53  ILE53       0.0023
     43  CD1       27.9290   16.4580   27.2770 C.3    53  ILE53       0.0001
     44  N         26.1110   20.7410   29.1200 N.am   54  VAL54      -0.1963
     45  CA        25.1690   21.6990   28.5010 C.3    54  VAL54       0.1727
     46  C         25.4780   21.9700   27.0090 C.2    54  VAL54       0.2616
     47  O         24.9240   22.9080   26.3760 O.2    54  VAL54      -0.2715
     48  CB        25.1420   23.0670   29.2680 C.3    54  VAL54       0.0290
     49  CG1       24.4920   22.9290   30.6200 C.3    54  VAL54       0.0023
     50  CG2       26.5320   23.6510   29.4120 C.3    54  VAL54       0.0023
     51  N         26.3710   21.1600   26.4400 N.am   55  SER55      -0.1950
     52  CA        26.9120   21.4690   25.1290 C.3    55  SER55       0.1924
     53  C         27.6300   20.3010   24.4680 C.2    55  SER55       0.2314
     54  O         28.3290   19.5390   25.1280 O.2    55  SER55      -0.2863
     55  CB        27.8820   22.6130   25.2760 C.3    55  SER55       0.2116
     56  OG        27.7790   23.4220   24.1370 O.3    55  SER55      -0.2180
     57  N         29.7400   19.3480   20.5880 N.3    57  PRO57      -0.2116
     58  CA        30.0410   19.4490   19.1820 C.3    57  PRO57       0.1372
     59  C         29.2290   18.4230   18.3900 C.2    57  PRO57       0.2244
     60  O         29.1210   17.2490   18.7860 O.2    57  PRO57      -0.2868
     61  CB        31.5360   19.1200   19.1120 C.3    57  PRO57       0.0268
     62  CG        31.8910   18.5170   20.4060 C.3    57  PRO57       0.0207
     63  CD        30.9190   19.0190   21.4030 C.3    57  PRO57       0.0892
     64  N         31.5260   30.1360   23.8540 N.3   140  ARG140     -0.1245
     65  CA        32.4610   29.0450   23.7640 C.3   140  ARG140      0.1563
     66  C         32.8050   28.8130   22.3130 C.2   140  ARG140      0.2260
     67  O         32.0440   29.1700   21.4100 O.2   140  ARG140     -0.2867
     68  CB        31.9300   27.7720   24.4510 C.3   140  ARG140      0.0307
     69  CG        30.7410   27.1170   23.7820 C.3   140  ARG140      0.0489
     70  CD        29.7630   26.5020   24.8050 C.3   140  ARG140      0.2205
     71  NE        30.4180   25.6490   25.7890 N.pl3 140  ARG140     -0.0865
     72  CZ        29.9830   25.4530   27.0340 C.cat 140  ARG140      0.5346
     73  NH1       28.8760   26.0470   27.4690 N.pl3 140  ARG140      0.1354
     74  NH2       30.6650   24.6540   27.8520 N.pl3 140  ARG140      0.1354
     75  N         36.5290   22.1280   22.9980 N.3   158  VAL158     -0.1245
     76  CA        35.6900   23.3050   22.9820 C.3   158  VAL158      0.1561
     77  C         36.2080   24.2010   24.1030 C.2   158  VAL158      0.2260
     78  O         36.1490   23.8390   25.2730 O.2   158  VAL158     -0.2867
     79  CB        34.1950   22.9120   23.2090 C.3   158  VAL158      0.0252
     80  CG1       33.3510   24.0940   23.6210 C.3   158  VAL158      0.0019
     81  CG2       33.6360   22.2780   21.9650 C.3   158  VAL158      0.0019
     82  N         35.8840   27.2920   26.5110 N.3   160  THR160     -0.1218
     83  CA        34.9560   28.2490   27.1140 C.3   160  THR160      0.1862
     84  C         35.6890   29.5040   27.5570 C.2   160  THR160      0.2287
     85  O         36.9150   29.5150   27.6910 O.2   160  THR160     -0.2866
     86  CB        34.3060   27.7030   28.3900 C.3   160  THR160      0.1770
     87  OG1       35.2950   27.6650   29.4170 O.3   160  THR160     -0.2211
     88  CG2       33.7150   26.3120   28.1850 C.3   160  THR160      0.0375
     89  N         35.3210   30.6080   30.4890 N.3   162  TYR162     -0.1227
     90  CA        35.6990   30.2870   31.8560 C.3   162  TYR162      0.1736
     91  C         37.0550   29.6140   31.9330 C.2   162  TYR162      0.2595
     92  O         37.8960   30.0110   32.7360 O.2   162  TYR162     -0.2718
     93  CB        34.6450   29.4350   32.5760 C.3   162  TYR162      0.0548
     94  CG        35.1330   29.0050   33.9280 C.ar  162  TYR162     -0.0200
     95  CD1       35.4720   27.6790   34.1730 C.ar  162  TYR162     -0.0009
     96  CD2       35.3190   29.9400   34.9490 C.ar  162  TYR162     -0.0009
     97  CE1       35.9520   27.2780   35.3970 C.ar  162  TYR162      0.0417
     98  CE2       35.7980   29.5540   36.1840 C.ar  162  TYR162      0.0417
     99  CZ        36.1220   28.2180   36.4020 C.ar  162  TYR162      0.1957
    100  OH        36.6180   27.8210   37.6280 O.3   162  TYR162     -0.2866
    101  N         37.2840   28.5990   31.1090 N.am  163  ARG163     -0.1980
    102  CA        38.5950   27.9190   31.1140 C.3   163  ARG163      0.1597
    103  C         39.8040   28.8160   30.7680 C.2   163  ARG163      0.2287
    104  O         40.9000   28.5540   31.2180 O.2   163  ARG163     -0.2864
    105  CB        38.5730   26.6420   30.2560 C.3   163  ARG163      0.0334
    106  CG        37.7640   25.5430   30.8840 C.3   163  ARG163      0.0492
    107  CD        38.5120   25.0010   32.0670 C.3   163  ARG163      0.2205
    108  NE        37.6820   24.7620   33.2440 N.pl3 163  ARG163     -0.0865
    109  CZ        36.7700   23.8080   33.3240 C.cat 163  ARG163      0.5346
    110  NH1       36.5530   23.0340   32.2600 N.pl3 163  ARG163      0.1354
    111  NH2       36.0640   23.6470   34.4420 N.pl3 163  ARG163      0.1354
    112  N         33.5530   28.1320   40.4430 N.3   285  ARG285     -0.1245
    113  CA        33.1230   28.1040   39.0670 C.3   285  ARG285      0.1563
    114  C         32.2220   29.2930   38.8230 C.2   285  ARG285      0.2260
    115  O         31.0460   29.1650   38.5700 O.2   285  ARG285     -0.2867
    116  CB        32.4520   26.7790   38.7470 C.3   285  ARG285      0.0307
    117  CG        32.8550   26.2430   37.4070 C.3   285  ARG285      0.0489
    118  CD        32.5730   24.7390   37.3100 C.3   285  ARG285      0.2205
    119  NE        32.2000   24.3580   35.9510 N.pl3 285  ARG285     -0.0865
    120  CZ        30.9870   24.5420   35.4330 C.cat 285  ARG285      0.5346
    121  NH1       30.0250   23.6540   35.6260 N.pl3 285  ARG285      0.1354
    122  NH2       30.7260   25.6210   34.7210 N.pl3 285  ARG285      0.1354
    123  N         30.4070   32.1510   37.0000 N.3   287  HIS287     -0.1241
    124  CA        30.0040   32.4970   35.6410 C.3   287  HIS287      0.1621
    125  C         29.7830   33.9720   35.4000 C.2   287  HIS287      0.2264
    126  O         29.8710   34.4550   34.2670 O.2   287  HIS287     -0.2867
    127  CB        28.8500   31.6370   35.1550 C.3   287  HIS287      0.0745
    128  CG        29.3140   30.3420   34.5820 C.ar  287  HIS287      0.0817
    129  ND1       29.6930   30.2090   33.2610 N.ar  287  HIS287     -0.2268
    130  CD2       29.5250   29.1340   35.1610 C.ar  287  HIS287      0.1154
    131  CE1       30.0880   28.9650   33.0430 C.ar  287  HIS287      0.1986
    132  NE2       30.0020   28.2940   34.1810 N.ar  287  HIS287     -0.2212
@<TRIPOS>BOND
     1    59    60    2
     2    59    58    1
     3    61    58    1
     4    61    62    1
     5    58    57    1
     6    62    63    1
     7    57    63    1
     8    19    17    1
     9    67    66    2
    10    81    79    1
    11    17    18    1
    12    17    16    1
    13    66    65    1
    14    23    22    2
    15    22    21    1
    16    15    14    2
    17    76    75    1
    18    76    79    1
    19    76    77    1
    20    79    80    1
    21    16    13    1
    22    65    64    1
    23    65    68    1
    24    69    68    1
    25    69    70    1
    26    14    20   am
    27    14    13    1
    28    21    20    1
    29    21    24    1
    30    77    78    2
    31    56    55    1
    32    13    12    1
    33    53    54    2
    34    53    52    1
    35    26    24    1
    36    70    71    1
    37    24    25    1
    38    52    55    1
    39    52    51    1
    40    12     3   am
    41    71    72    2
    42    25    27    1
    43     3     4    2
    44     3     2    1
    45    47    46    2
    46    51    46   am
    47    82    83    1
    48    46    45    1
    49    72    73    1
    50    72    74    1
    51    83    84    1
    52    83    86    1
    53     2     1    1
    54     2     5    1
    55    43    41    1
    56    84    85    2
    57     5     6    1
    58    88    86    1
    59    86    87    1
    60    45    44    1
    61    45    48    1
    62     6     7    1
    63    41    40    1
    64    44    38   am
    65    40    42    1
    66    40    37    1
    67    48    50    1
    68    48    49    1
    69     7     8    1
    70    39    38    2
    71    38    37    1
    72   105   106    1
    73   105   102    1
    74    37    36    1
    75    89    90    1
    76   103   102    1
    77   103   104    2
    78     8     9    2
    79   106   107    1
    80   101   102    1
    81   101    91   am
    82    36    30   am
    83    10     9    1
    84     9    11    1
    85    90    91    1
    86    90    93    1
    87    91    92    2
    88   107   108    1
    89   110   109    1
    90    28    29    1
    91    30    31    2
    92    30    29    1
    93    93    94    1
    94   131   129   ar
    95   131   132   ar
    96    29    32    1
    97   108   109    2
    98   129   128   ar
    99   109   111    1
   100    94    95   ar
   101    94    96   ar
   102    95    97   ar
   103   132   130   ar
   104   126   125    2
   105    32    33    1
   106   128   127    1
   107   128   130   ar
   108   122   120    1
   109    96    98   ar
   110   127   124    1
   111    97    99   ar
   112   125   124    1
   113   120   121    1
   114   120   119    2
   115    33    35   am
   116    33    34    2
   117   124   123    1
   118   119   118    1
   119    98    99   ar
   120    99   100    1
   121   118   117    1
   122   117   116    1
   123   115   114    2
   124   116   113    1
   125   114   113    1
   126   113   112    1
