@<TRIPOS>MOLECULE
tmp/2qrcF00.pdb
 173 165 0 0 0
SMALL
GASTEIGER

@<TRIPOS>ATOM
      1  N         30.6210   37.1270   19.5640 N.3   137  ARG137     -0.1245
      2  CA        29.8180   37.1290   20.7830 C.3   137  ARG137      0.1563
      3  C         29.5140   35.7040   21.2990 C.2   137  ARG137      0.2260
      4  O         28.7250   35.5120   22.2270 O.2   137  ARG137     -0.2867
      5  CB        28.5650   38.0090   20.6140 C.3   137  ARG137      0.0307
      6  CG        27.7780   38.2970   21.9060 C.3   137  ARG137      0.0489
      7  CD        28.6120   38.9460   23.0550 C.3   137  ARG137      0.2205
      8  NE        28.2940   38.3420   24.3590 N.pl3 137  ARG137     -0.0865
      9  CZ        29.1090   37.5260   25.0320 C.cat 137  ARG137      0.5346
     10  NH1       30.3210   37.2400   24.5480 N.pl3 137  ARG137      0.1354
     11  NH2       28.7230   37.0080   26.2020 N.pl3 137  ARG137      0.1354
     12  N         30.1430   32.3510   23.4470 N.3   139  ARG139     -0.1245
     13  CA        30.6790   32.1770   24.7920 C.3   139  ARG139      0.1563
     14  C         31.5130   30.9170   24.9170 C.2   139  ARG139      0.2260
     15  O         32.1170   30.6400   25.9730 O.2   139  ARG139     -0.2867
     16  CB        29.5620   32.1590   25.8240 C.3   139  ARG139      0.0307
     17  CG        28.9570   33.5030   26.0500 C.3   139  ARG139      0.0489
     18  CD        27.6700   33.4330   26.8350 C.3   139  ARG139      0.2205
     19  NE        26.9660   34.6910   26.6310 N.pl3 139  ARG139     -0.0865
     20  CZ        26.1600   34.9470   25.6110 C.cat 139  ARG139      0.5346
     21  NH1       25.9060   34.0170   24.7090 N.pl3 139  ARG139      0.1354
     22  NH2       25.6070   36.1420   25.5070 N.pl3 139  ARG139      0.1354
     23  N         34.9330   30.5550   27.8410 N.3   161  GLN161     -0.1245
     24  CA        35.5270   31.7630   28.3780 C.3   161  GLN161      0.1566
     25  C         36.0110   31.5010   29.7820 C.2   161  GLN161      0.2260
     26  O         37.0070   32.0960   30.2160 O.2   161  GLN161     -0.2867
     27  CB        34.5290   32.9120   28.3970 C.3   161  GLN161      0.0367
     28  CG        33.8600   33.1820   27.0680 C.3   161  GLN161      0.0905
     29  CD        33.1520   34.5020   27.0480 C.2   161  GLN161      0.2608
     30  OE1       33.5140   35.3990   26.2720 O.2   161  GLN161     -0.2717
     31  NE2       32.1380   34.6500   27.9160 N.am  161  GLN161     -0.0878
     32  N         31.6880   46.2310   32.5730 N.3   188  GLY188     -0.1210
     33  CA        30.4140   45.7230   33.0810 C.3   188  GLY188      0.1956
     34  C         29.2260   46.6040   32.7360 C.2   188  GLY188      0.2612
     35  O         29.3940   47.7420   32.3180 O.2   188  GLY188     -0.2717
     36  N         28.0240   46.0690   32.9090 N.am  189  THR189     -0.1952
     37  CA        26.8190   46.8170   32.6500 C.3   189  THR189      0.1897
     38  C         26.2600   47.2810   33.9690 C.2   189  THR189      0.2313
     39  O         26.2240   46.5220   34.9370 O.2   189  THR189     -0.2863
     40  CB        25.7740   45.9470   31.9490 C.3   189  THR189      0.1794
     41  OG1       26.3860   45.2670   30.8430 O.3   189  THR189     -0.2208
     42  CG2       24.6070   46.7930   31.4310 C.3   189  THR189      0.0378
     43  N         20.1260   49.9490   32.5490 N.3   192  ASN192     -0.1225
     44  CA        19.2290   49.2250   31.6430 C.3   192  ASN192      0.1785
     45  C         19.3790   47.7340   31.8410 C.2   192  ASN192      0.2597
     46  O         19.6830   46.9990   30.9020 O.2   192  ASN192     -0.2718
     47  CB        19.4450   49.6150   30.1710 C.3   192  ASN192      0.1169
     48  CG        18.5290   50.7640   29.7220 C.2   192  ASN192      0.2627
     49  OD1       18.9990   51.8320   29.3280 O.2   192  ASN192     -0.2716
     50  ND2       17.2180   50.5420   29.7890 N.am  192  ASN192     -0.0877
     51  N         19.1910   47.2910   33.0770 N.am  193  LEU193     -0.1966
     52  CA        19.3590   45.8880   33.3900 C.3   193  LEU193      0.1728
     53  C         18.0720   45.1260   33.1200 C.2   193  LEU193      0.2616
     54  O         16.9960   45.5900   33.4630 O.2   193  LEU193     -0.2715
     55  CB        19.7980   45.6870   34.8440 C.3   193  LEU193      0.0311
     56  CG        21.1070   46.3040   35.3160 C.3   193  LEU193      0.0022
     57  CD1       21.4460   45.7510   36.6900 C.3   193  LEU193      0.0001
     58  CD2       22.2420   46.0450   34.3530 C.3   193  LEU193      0.0001
     59  N         18.1990   43.9520   32.5070 N.am  194  ALA194     -0.1977
     60  CA        17.0890   43.0210   32.4270 C.3   194  ALA194      0.1597
     61  C         17.0980   42.2110   33.7070 C.2   194  ALA194      0.2287
     62  O         18.1520   41.7010   34.1120 O.2   194  ALA194     -0.2864
     63  CB        17.2210   42.1320   31.2250 C.3   194  ALA194      0.0319
     64  N         18.2560   40.1990   24.2880 N.3   212  LYS212     -0.1231
     65  CA        19.4040   40.8970   24.8240 C.3   212  LYS212      0.1693
     66  C         20.7100   40.1240   24.6070 C.2   212  LYS212      0.2592
     67  O         21.7870   40.6420   24.8890 O.2   212  LYS212     -0.2718
     68  CB        19.1710   41.1880   26.3080 C.3   212  LYS212      0.0285
     69  CG        17.8800   41.9590   26.5780 C.3   212  LYS212      0.0035
     70  CD        18.0780   43.0600   27.6070 C.3   212  LYS212      0.0206
     71  CE        18.8790   44.2630   27.0410 C.3   212  LYS212      0.1093
     72  NZ        20.3590   43.9900   26.8910 N.3   212  LYS212     -0.1314
     73  N         20.6060   38.9040   24.0770 N.am  213  ASN213     -0.1960
     74  CA        21.7520   38.0180   23.8320 C.3   213  ASN213      0.1819
     75  C         22.6530   37.9760   25.0400 C.2   213  ASN213      0.2621
     76  O         23.8440   38.3400   24.9790 O.2   213  ASN213     -0.2715
     77  CB        22.5400   38.3970   22.5780 C.3   213  ASN213      0.1195
     78  CG        23.7360   37.4650   22.3250 C.2   213  ASN213      0.2630
     79  OD1       23.9120   36.4300   23.0010 O.2   213  ASN213     -0.2716
     80  ND2       24.5650   37.8320   21.3500 N.am  213  ASN213     -0.0877
     81  N         22.0410   37.5640   26.1470 N.am  214  ILE214     -0.1963
     82  CA        22.7140   37.3620   27.4040 C.3   214  ILE214      0.1727
     83  C         22.4250   35.9340   27.8510 C.2   214  ILE214      0.2617
     84  O         21.4600   35.3170   27.4050 O.2   214  ILE214     -0.2715
     85  CB        22.2360   38.3800   28.4650 C.3   214  ILE214      0.0290
     86  CG1       20.7160   38.3170   28.6420 C.3   214  ILE214      0.0022
     87  CG2       22.6970   39.7970   28.0980 C.3   214  ILE214      0.0023
     88  CD1       20.2100   38.9480   29.9150 C.3   214  ILE214      0.0001
     89  N         23.2560   35.4090   28.7440 N.am  215  SER215     -0.1936
     90  CA        23.1420   34.0100   29.1670 C.3   215  SER215      0.2055
     91  C         22.3830   33.8040   30.4950 C.2   215  SER215      0.2642
     92  O         22.0640   32.6720   30.8590 O.2   215  SER215     -0.2714
     93  CB        24.5360   33.3910   29.2370 C.3   215  SER215      0.2130
     94  OG        25.2740   33.9850   30.2870 O.3   215  SER215     -0.2179
     95  N         22.1030   34.8950   31.2080 N.am  216  ALA216     -0.1977
     96  CA        21.4270   34.8000   32.4960 C.3   216  ALA216      0.1597
     97  C         20.7480   36.0880   32.9230 C.2   216  ALA216      0.2287
     98  O         21.2190   37.1860   32.6430 O.2   216  ALA216     -0.2864
     99  CB        22.3950   34.3770   33.5570 C.3   216  ALA216      0.0319
    100  N         19.1500   38.0080   36.4140 N.3   218  PRO218     -0.2116
    101  CA        19.0390   38.0450   37.8660 C.3   218  PRO218      0.1372
    102  C         17.5830   38.1770   38.2730 C.2   218  PRO218      0.2244
    103  O         16.7810   38.7420   37.5160 O.2   218  PRO218     -0.2868
    104  CB        19.7990   39.3120   38.2410 C.3   218  PRO218      0.0268
    105  CG        19.6520   40.2060   37.0320 C.3   218  PRO218      0.0207
    106  CD        19.7230   39.2580   35.8750 C.3   218  PRO218      0.0892
    107  N         30.4070   32.1510   37.0000 N.3   287  HIS287     -0.1226
    108  CA        30.0040   32.4970   35.6410 C.3   287  HIS287      0.1752
    109  C         29.7830   33.9720   35.4000 C.2   287  HIS287      0.2595
    110  O         29.8710   34.4550   34.2670 O.2   287  HIS287     -0.2718
    111  CB        28.8500   31.6370   35.1550 C.3   287  HIS287      0.0759
    112  CG        29.3140   30.3420   34.5820 C.ar  287  HIS287      0.0818
    113  ND1       29.6930   30.2090   33.2610 N.ar  287  HIS287     -0.2268
    114  CD2       29.5250   29.1340   35.1610 C.ar  287  HIS287      0.1154
    115  CE1       30.0880   28.9650   33.0430 C.ar  287  HIS287      0.1986
    116  NE2       30.0020   28.2940   34.1810 N.ar  287  HIS287     -0.2212
    117  N         29.5360   34.6980   36.4640 N.am  288  ARG288     -0.1980
    118  CA        29.3650   36.1260   36.3430 C.3   288  ARG288      0.1597
    119  C         29.3420   36.6490   37.7340 C.2   288  ARG288      0.2287
    120  O         29.0640   35.9070   38.6640 O.2   288  ARG288     -0.2864
    121  CB        28.0350   36.4380   35.6610 C.3   288  ARG288      0.0334
    122  CG        26.8280   35.8520   36.3900 C.3   288  ARG288      0.0492
    123  CD        25.5950   35.9450   35.5490 C.3   288  ARG288      0.2205
    124  NE        25.7280   35.1630   34.3200 N.pl3 288  ARG288     -0.0865
    125  CZ        25.5420   33.8470   34.2360 C.cat 288  ARG288      0.5346
    126  NH1       25.2040   33.1300   35.3030 N.pl3 288  ARG288      0.1354
    127  NH2       25.6870   33.2490   33.0640 N.pl3 288  ARG288      0.1354
    128  N         27.3500   39.4110   40.0390 N.3   290  PHE290     -0.1241
    129  CA        26.4110   40.5030   40.1760 C.3   290  PHE290      0.1605
    130  C         26.9560   41.5020   41.1620 C.2   290  PHE290      0.2264
    131  O         27.3120   41.1610   42.3010 O.2   290  PHE290     -0.2867
    132  CB        25.0350   40.0180   40.5820 C.3   290  PHE290      0.0534
    133  CG        24.3840   39.1690   39.5340 C.ar  290  PHE290     -0.0203
    134  CD1       24.1080   37.8170   39.7780 C.ar  290  PHE290     -0.0042
    135  CD2       24.0800   39.7000   38.2880 C.ar  290  PHE290     -0.0042
    136  CE1       23.5160   37.0280   38.8090 C.ar  290  PHE290     -0.0003
    137  CE2       23.5050   38.9050   37.3140 C.ar  290  PHE290     -0.0003
    138  CZ        23.2250   37.5620   37.5760 C.ar  290  PHE290     -0.0000
    139  N         26.2860   44.2300   36.5140 N.3   301  ILE301     -0.1245
    140  CA        26.6210   42.8760   36.1250 C.3   301  ILE301      0.1561
    141  C         28.0060   42.9220   35.5430 C.2   301  ILE301      0.2260
    142  O         28.3190   43.8180   34.7580 O.2   301  ILE301     -0.2867
    143  CB        25.6580   42.3420   35.0340 C.3   301  ILE301      0.0252
    144  CG1       24.4770   41.6240   35.6630 C.3   301  ILE301      0.0019
    145  CG2       26.3450   41.3560   34.0980 C.3   301  ILE301      0.0019
    146  CD1       23.2180   42.3930   35.6070 C.3   301  ILE301      0.0001
    147  N         29.9230   40.1990   33.5060 N.3   303  SER303     -0.1202
    148  CA        30.0100   38.9350   32.8150 C.3   303  SER303      0.2020
    149  C         31.4530   38.5190   32.6450 C.2   303  SER303      0.2619
    150  O         32.3670   39.3370   32.7010 O.2   303  SER303     -0.2717
    151  CB        29.4330   39.0770   31.4220 C.3   303  SER303      0.2103
    152  OG        30.4870   39.2750   30.4800 O.3   303  SER303     -0.2182
    153  N         31.6460   37.2400   32.3660 N.am  304  LEU304     -0.1965
    154  CA        32.9610   36.7570   32.0130 C.3   304  LEU304      0.1728
    155  C         33.5150   37.4360   30.7760 C.2   304  LEU304      0.2616
    156  O         34.6880   37.7880   30.7490 O.2   304  LEU304     -0.2715
    157  CB        32.9430   35.2620   31.8000 C.3   304  LEU304      0.0311
    158  CG        32.5610   34.4230   33.0100 C.3   304  LEU304      0.0022
    159  CD1       32.9520   33.0050   32.6770 C.3   304  LEU304      0.0001
    160  CD2       33.2250   34.8970   34.3050 C.3   304  LEU304      0.0001
    161  N         32.6740   37.6360   29.7650 N.am  305  ALA305     -0.1963
    162  CA        33.1110   38.2810   28.5320 C.3   305  ALA305      0.1728
    163  C         33.5570   39.6980   28.8250 C.2   305  ALA305      0.2616
    164  O         34.4940   40.1960   28.2010 O.2   305  ALA305     -0.2715
    165  CB        32.0170   38.2780   27.5250 C.3   305  ALA305      0.0334
    166  N         32.9000   40.3380   29.7910 N.am  306  ASP306     -0.1971
    167  CA        33.2480   41.7020   30.1860 C.3   306  ASP306      0.1709
    168  C         34.7160   41.7030   30.5780 C.2   306  ASP306      0.2293
    169  O         35.5360   42.4000   29.9890 O.2   306  ASP306     -0.2864
    170  CB        32.3450   42.1880   31.3360 C.3   306  ASP306      0.1436
    171  CG        30.8930   42.4450   30.8810 C.2   306  ASP306      0.3671
    172  OD1       30.6980   42.7970   29.6900 O.co2 306  ASP306     -0.2456
    173  OD2       29.9420   42.2990   31.6930 O.co2 306  ASP306     -0.2456
@<TRIPOS>BOND
     1     1     2    1
     2     5     2    1
     3     5     6    1
     4     2     3    1
     5     3     4    2
     6    80    78   am
     7     6     7    1
     8    78    77    1
     9    78    79    2
    10    77    74    1
    11     7     8    1
    12    12    13    1
    13    74    73    1
    14    74    75    1
    15    73    66   am
    16    64    65    1
    17     8     9    2
    18    10     9    1
    19    66    65    1
    20    66    67    2
    21    21    20    1
    22    13    14    1
    23    13    16    1
    24    65    68    1
    25    14    15    2
    26    76    75    2
    27     9    11    1
    28    75    81   am
    29    22    20    1
    30    20    19    2
    31    16    17    1
    32    17    18    1
    33    81    82    1
    34    30    29    2
    35    68    69    1
    36    69    70    1
    37    19    18    1
    38    72    71    1
    39    71    70    1
    40    29    28    1
    41    29    31   am
    42    28    27    1
    43    82    83    1
    44    82    85    1
    45    84    83    2
    46   165   162    1
    47    23    24    1
    48    83    89   am
    49    87    85    1
    50   164   163    2
    51    24    27    1
    52    24    25    1
    53    85    86    1
    54   162   163    1
    55   162   161    1
    56    86    88    1
    57    89    90    1
    58   163   166   am
    59    90    93    1
    60    90    91    1
    61    93    94    1
    62    49    48    2
    63   172   171   ar
    64    48    50   am
    65    48    47    1
    66   161   155   am
    67    25    26    2
    68   166   167    1
    69   169   168    2
    70    47    44    1
    71   167   168    1
    72   167   170    1
    73   152   151    1
    74    91    92    2
    75    91    95   am
    76   156   155    2
    77   155   154    1
    78    41    40    1
    79   171   170    1
    80   171   173   ar
    81    46    45    2
    82    95    96    1
    83    63    60    1
    84   151   148    1
    85    42    40    1
    86    44    45    1
    87    44    43    1
    88   157   154    1
    89   157   158    1
    90    45    51   am
    91    40    37    1
    92   154   153    1
    93    35    34    2
    94   153   149   am
    95    60    59    1
    96    60    61    1
    97    96    97    1
    98    96    99    1
    99    59    53   am
   100    32    33    1
   101    98    97    2
   102   149   150    2
   103   149   148    1
   104    37    36    1
   105    37    38    1
   106   159   158    1
   107    34    36   am
   108    34    33    1
   109   148   147    1
   110   158   160    1
   111   115   113   ar
   112   115   116   ar
   113   127   125    1
   114    51    52    1
   115    53    52    1
   116    53    54    2
   117   113   112   ar
   118    52    55    1
   119    61    62    2
   120    38    39    2
   121   145   143    1
   122   116   114   ar
   123   125   124    2
   124   125   126    1
   125   110   109    2
   126   124   123    1
   127    58    56    1
   128   112   111    1
   129   112   114   ar
   130   142   141    2
   131    55    56    1
   132   143   144    1
   133   143   140    1
   134   111   108    1
   135    56    57    1
   136   109   108    1
   137   109   117   am
   138   141   140    1
   139   123   122    1
   140   146   144    1
   141   108   107    1
   142   121   118    1
   143   121   122    1
   144   106   100    1
   145   106   105    1
   146   140   139    1
   147   118   117    1
   148   118   119    1
   149   100   101    1
   150   105   104    1
   151   137   138   ar
   152   137   135   ar
   153   103   102    2
   154   138   136   ar
   155   119   120    2
   156   101   104    1
   157   101   102    1
   158   135   133   ar
   159   136   134   ar
   160   133   134   ar
   161   133   132    1
   162   128   129    1
   163   129   132    1
   164   129   130    1
   165   130   131    2
