@<TRIPOS>MOLECULE
tmp/2qrdF01.pdb
 165 156 0 0 0
SMALL
GASTEIGER

@<TRIPOS>ATOM
      1  N         30.4300   36.8670   19.9220 N.3   138  ARG138     -0.1245
      2  CA        29.5580   36.8960   21.1010 C.3   138  ARG138      0.1563
      3  C         29.2900   35.4900   21.6380 C.2   138  ARG138      0.2260
      4  O         28.5090   35.2880   22.5700 O.2   138  ARG138     -0.2867
      5  CB        28.2540   37.6800   20.8200 C.3   138  ARG138      0.0307
      6  CG        28.3920   39.2380   20.9290 C.3   138  ARG138      0.0489
      7  CD        28.9680   39.6610   22.3050 C.3   138  ARG138      0.2205
      8  NE        28.8240   38.5960   23.3330 N.pl3 138  ARG138     -0.0865
      9  CZ        29.8300   38.0560   24.0440 C.cat 138  ARG138      0.5346
     10  NH1       31.1020   38.5130   23.9100 N.pl3 138  ARG138      0.1354
     11  NH2       29.5530   37.0700   24.9180 N.pl3 138  ARG138      0.1354
     12  N         30.1160   32.2580   23.7300 N.3   140  ARG140     -0.1245
     13  CA        30.6870   32.1230   25.0810 C.3   140  ARG140      0.1563
     14  C         31.5010   30.8520   25.2180 C.2   140  ARG140      0.2260
     15  O         32.0250   30.5370   26.2860 O.2   140  ARG140     -0.2867
     16  CB        29.5880   32.1500   26.1390 C.3   140  ARG140      0.0307
     17  CG        28.7710   33.3980   26.0640 C.3   140  ARG140      0.0489
     18  CD        27.5320   33.2990   26.9190 C.3   140  ARG140      0.2205
     19  NE        26.7690   34.5360   26.7870 N.pl3 140  ARG140     -0.0865
     20  CZ        25.9190   34.7850   25.8010 C.cat 140  ARG140      0.5346
     21  NH1       25.6790   33.8770   24.8700 N.pl3 140  ARG140      0.1354
     22  NH2       25.2930   35.9280   25.7720 N.pl3 140  ARG140      0.1354
     23  N         34.7960   30.5560   28.1390 N.3   162  GLN162     -0.1245
     24  CA        35.3810   31.7670   28.6750 C.3   162  GLN162      0.1566
     25  C         35.8530   31.5720   30.1020 C.2   162  GLN162      0.2260
     26  O         36.8280   32.1840   30.4940 O.2   162  GLN162     -0.2867
     27  CB        34.3840   32.9180   28.5830 C.3   162  GLN162      0.0367
     28  CG        34.0970   33.3310   27.1400 C.3   162  GLN162      0.0905
     29  CD        33.0430   34.3900   27.0240 C.2   162  GLN162      0.2608
     30  OE1       33.1500   35.2910   26.1760 O.2   162  GLN162     -0.2717
     31  NE2       32.0150   34.3050   27.8730 N.am  162  GLN162     -0.0878
     32  N         31.5530   46.3180   32.9250 N.3   189  GLY189     -0.1210
     33  CA        30.2490   45.8390   33.3780 C.3   189  GLY189      0.1956
     34  C         29.0980   46.6700   32.8450 C.2   189  GLY189      0.2612
     35  O         29.2960   47.6680   32.1230 O.2   189  GLY189     -0.2717
     36  N         27.8920   46.2700   33.2250 N.am  190  THR190     -0.1952
     37  CA        26.6940   46.9570   32.8070 C.3   190  THR190      0.1897
     38  C         25.9670   47.4410   34.0520 C.2   190  THR190      0.2313
     39  O         25.6810   46.6360   34.9600 O.2   190  THR190     -0.2863
     40  CB        25.7850   46.0110   31.9790 C.3   190  THR190      0.1794
     41  OG1       26.5190   45.5450   30.8310 O.3   190  THR190     -0.2208
     42  CG2       24.4850   46.7350   31.5380 C.3   190  THR190      0.0378
     43  N         19.7430   50.0880   32.6510 N.3   193  ASN193     -0.1225
     44  CA        18.7920   49.3070   31.8440 C.3   193  ASN193      0.1785
     45  C         19.0420   47.8250   32.0240 C.2   193  ASN193      0.2597
     46  O         19.2870   47.0860   31.0690 O.2   193  ASN193     -0.2718
     47  CB        18.8220   49.7350   30.3730 C.3   193  ASN193      0.1169
     48  CG        18.5510   51.2490   30.1900 C.2   193  ASN193      0.2627
     49  OD1       19.1830   51.9140   29.3580 O.2   193  ASN193     -0.2716
     50  ND2       17.6330   51.7940   30.9960 N.am  193  ASN193     -0.0877
     51  N         19.0400   47.4040   33.2820 N.am  194  LEU194     -0.1966
     52  CA        19.2740   46.0090   33.6120 C.3   194  LEU194      0.1728
     53  C         17.9910   45.2480   33.3730 C.2   194  LEU194      0.2616
     54  O         16.9330   45.7090   33.7740 O.2   194  LEU194     -0.2715
     55  CB        19.7710   45.8440   35.0650 C.3   194  LEU194      0.0311
     56  CG        21.0980   46.5190   35.4700 C.3   194  LEU194      0.0022
     57  CD1       21.5400   46.0790   36.8700 C.3   194  LEU194      0.0001
     58  CD2       22.1840   46.1990   34.4790 C.3   194  LEU194      0.0001
     59  N         18.1040   44.1080   32.6870 N.am  195  ALA195     -0.1977
     60  CA        17.0070   43.1620   32.5150 C.3   195  ALA195      0.1597
     61  C         16.9270   42.3170   33.7760 C.2   195  ALA195      0.2287
     62  O         17.9140   41.7100   34.1940 O.2   195  ALA195     -0.2864
     63  CB        17.2540   42.2870   31.3130 C.3   195  ALA195      0.0319
     64  N         18.1680   40.2680   24.5090 N.3   213  LYS213     -0.1231
     65  CA        19.2910   40.9910   25.1050 C.3   213  LYS213      0.1693
     66  C         20.6360   40.2870   24.8380 C.2   213  LYS213      0.2592
     67  O         21.7050   40.9060   25.0020 O.2   213  LYS213     -0.2718
     68  CB        19.0690   41.1430   26.6140 C.3   213  LYS213      0.0285
     69  CG        18.1690   42.2970   27.0300 C.3   213  LYS213      0.0035
     70  CD        18.9270   43.3550   27.8450 C.3   213  LYS213      0.0206
     71  CE        19.7890   44.3220   27.0030 C.3   213  LYS213      0.1093
     72  NZ        21.2560   43.9820   27.0080 N.3   213  LYS213     -0.1314
     73  N         20.5590   39.0140   24.3970 N.am  214  ASN214     -0.1960
     74  CA        21.7220   38.1170   24.2100 C.3   214  ASN214      0.1819
     75  C         22.5740   38.0130   25.4690 C.2   214  ASN214      0.2621
     76  O         23.7510   38.4020   25.5010 O.2   214  ASN214     -0.2715
     77  CB        22.5780   38.4830   22.9940 C.3   214  ASN214      0.1195
     78  CG        23.6690   37.4460   22.7110 C.2   214  ASN214      0.2630
     79  OD1       23.6430   36.3360   23.2630 O.2   214  ASN214     -0.2716
     80  ND2       24.6240   37.7970   21.8440 N.am  214  ASN214     -0.0877
     81  N         21.9370   37.4980   26.5170 N.am  215  ILE215     -0.1963
     82  CA        22.5490   37.3360   27.8130 C.3   215  ILE215      0.1727
     83  C         22.2770   35.8890   28.2240 C.2   215  ILE215      0.2617
     84  O         21.3600   35.2890   27.6730 O.2   215  ILE215     -0.2715
     85  CB        21.9980   38.3900   28.8170 C.3   215  ILE215      0.0290
     86  CG1       20.4920   38.1910   29.0710 C.3   215  ILE215      0.0022
     87  CG2       22.3670   39.8450   28.3410 C.3   215  ILE215      0.0023
     88  CD1       19.8420   39.2740   29.9360 C.3   215  ILE215      0.0001
     89  N         23.0900   35.3290   29.1410 N.am  216  SER216     -0.1936
     90  CA        22.9770   33.9050   29.5670 C.3   216  SER216      0.2055
     91  C         22.1720   33.6580   30.8580 C.2   216  SER216      0.2642
     92  O         21.7910   32.5080   31.1660 O.2   216  SER216     -0.2714
     93  CB        24.3670   33.2430   29.6920 C.3   216  SER216      0.2130
     94  OG        25.2660   34.0900   30.4050 O.3   216  SER216     -0.2179
     95  N         21.9200   34.7360   31.5970 N.am  217  ALA217     -0.1977
     96  CA        21.1720   34.6970   32.8400 C.3   217  ALA217      0.1597
     97  C         20.4540   36.0130   33.0430 C.2   217  ALA217      0.2287
     98  O         20.8960   37.0510   32.5400 O.2   217  ALA217     -0.2864
     99  CB        22.0920   34.3990   34.0350 C.3   217  ALA217      0.0319
    100  N         18.9350   38.1530   36.3890 N.3   219  PRO219     -0.2116
    101  CA        18.8790   38.2240   37.8350 C.3   219  PRO219      0.1372
    102  C         17.4470   38.3540   38.3480 C.2   219  PRO219      0.2244
    103  O         16.6370   39.0640   37.7580 O.2   219  PRO219     -0.2868
    104  CB        19.6820   39.4860   38.1460 C.3   219  PRO219      0.0268
    105  CG        19.6050   40.3120   36.9020 C.3   219  PRO219      0.0207
    106  CD        19.5060   39.3720   35.7800 C.3   219  PRO219      0.0892
    107  N         30.3580   32.2680   37.0110 N.3   288  HIS288     -0.1226
    108  CA        29.9820   32.5180   35.6240 C.3   288  HIS288      0.1752
    109  C         29.6400   33.9600   35.3090 C.2   288  HIS288      0.2595
    110  O         29.4410   34.3050   34.1540 O.2   288  HIS288     -0.2718
    111  CB        28.9100   31.5220   35.1160 C.3   288  HIS288      0.0759
    112  CG        29.5130   30.2550   34.5880 C.ar  288  HIS288      0.0818
    113  ND1       29.3570   29.0360   35.2080 N.ar  288  HIS288     -0.2268
    114  CD2       30.3720   30.0430   33.5560 C.ar  288  HIS288      0.1154
    115  CE1       30.0560   28.1230   34.5540 C.ar  288  HIS288      0.1986
    116  NE2       30.6910   28.7110   33.5580 N.ar  288  HIS288     -0.2212
    117  N         29.6000   34.7880   36.3470 N.am  289  ARG289     -0.1980
    118  CA        29.2110   36.1850   36.2850 C.3   289  ARG289      0.1597
    119  C         29.1850   36.6170   37.7400 C.2   289  ARG289      0.2287
    120  O         29.1580   35.7710   38.6370 O.2   289  ARG289     -0.2864
    121  CB        27.8260   36.3840   35.6330 C.3   289  ARG289      0.0334
    122  CG        26.6760   35.6280   36.3590 C.3   289  ARG289      0.0492
    123  CD        25.3800   35.5930   35.5830 C.3   289  ARG289      0.2205
    124  NE        25.4860   34.7650   34.3810 N.pl3 289  ARG289     -0.0865
    125  CZ        25.3240   33.4460   34.3410 C.cat 289  ARG289      0.5346
    126  NH1       25.0180   32.7290   35.4480 N.pl3 289  ARG289      0.1354
    127  NH2       25.4780   32.8430   33.1670 N.pl3 289  ARG289      0.1354
    128  N         27.0560   39.4650   40.0780 N.3   291  PHE291     -0.1241
    129  CA        26.1080   40.5560   40.2400 C.3   291  PHE291      0.1605
    130  C         26.6570   41.5650   41.2340 C.2   291  PHE291      0.2264
    131  O         26.8560   41.2450   42.3860 O.2   291  PHE291     -0.2867
    132  CB        24.7220   40.0340   40.6220 C.3   291  PHE291      0.0534
    133  CG        24.1280   39.1330   39.5640 C.ar  291  PHE291     -0.0203
    134  CD1       24.0620   37.7510   39.7540 C.ar  291  PHE291     -0.0042
    135  CD2       23.6960   39.6630   38.3470 C.ar  291  PHE291     -0.0042
    136  CE1       23.5360   36.9230   38.7810 C.ar  291  PHE291     -0.0003
    137  CE2       23.1940   38.8410   37.3650 C.ar  291  PHE291     -0.0003
    138  CZ        23.1040   37.4590   37.5820 C.ar  291  PHE291     -0.0000
    139  N         26.0030   44.2120   36.4960 N.3   302  ILE302     -0.1245
    140  CA        26.4310   42.8750   36.1310 C.3   302  ILE302      0.1561
    141  C         27.8480   42.9840   35.6630 C.2   302  ILE302      0.2260
    142  O         28.2050   43.9010   34.9320 O.2   302  ILE302     -0.2867
    143  CB        25.5360   42.1940   35.0290 C.3   302  ILE302      0.0252
    144  CG1       24.1620   41.8260   35.5900 C.3   302  ILE302      0.0019
    145  CG2       26.1300   40.8500   34.5350 C.3   302  ILE302      0.0019
    146  CD1       23.1130   42.8110   35.3080 C.3   302  ILE302      0.0001
    147  N         30.0200   40.2640   33.7750 N.3   304  SER304     -0.1217
    148  CA        30.0460   38.9200   33.2270 C.3   304  SER304      0.1889
    149  C         31.4570   38.4900   32.8250 C.2   304  SER304      0.2288
    150  O         32.3780   39.2940   32.7710 O.2   304  SER304     -0.2866
    151  CB        29.0800   38.8250   32.0520 C.3   304  SER304      0.2089
    152  OG        29.6100   39.4890   30.9200 O.3   304  SER304     -0.2183
    153  N         32.4950   37.7060   29.9180 N.3   306  ALA306     -0.1231
    154  CA        32.9130   38.3970   28.6860 C.3   306  ALA306      0.1694
    155  C         33.3290   39.8390   28.9470 C.2   306  ALA306      0.2592
    156  O         34.2480   40.3180   28.3060 O.2   306  ALA306     -0.2718
    157  CB        31.8680   38.3480   27.6670 C.3   306  ALA306      0.0304
    158  N         32.6560   40.5230   29.8800 N.am  307  ASP307     -0.1974
    159  CA        33.1400   41.8000   30.4060 C.3   307  ASP307      0.1709
    160  C         34.5970   41.6730   30.8880 C.2   307  ASP307      0.2293
    161  O         35.4450   42.4310   30.4420 O.2   307  ASP307     -0.2864
    162  CB        32.2280   42.3440   31.5150 C.3   307  ASP307      0.1436
    163  CG        30.8000   42.6300   31.0280 C.2   307  ASP307      0.3671
    164  OD1       30.6390   42.9620   29.8290 O.co2 307  ASP307     -0.2456
    165  OD2       29.8330   42.5130   31.8230 O.co2 307  ASP307     -0.2456
@<TRIPOS>BOND
     1     1     2    1
     2     5     6    1
     3     5     2    1
     4     6     7    1
     5     2     3    1
     6     3     4    2
     7    80    78   am
     8     7     8    1
     9    78    77    1
    10    78    79    2
    11    77    74    1
    12     8     9    2
    13    12    13    1
    14    10     9    1
    15     9    11    1
    16    74    73    1
    17    74    75    1
    18    73    66   am
    19    64    65    1
    20    66    67    2
    21    66    65    1
    22    21    20    1
    23    13    14    1
    24    13    16    1
    25    65    68    1
    26    14    15    2
    27    75    76    2
    28    75    81   am
    29    22    20    1
    30    20    19    2
    31    17    16    1
    32    17    18    1
    33    30    29    2
    34    81    82    1
    35    68    69    1
    36    19    18    1
    37    71    72    1
    38    71    70    1
    39    29    28    1
    40    29    31   am
    41    69    70    1
    42    28    27    1
    43   157   154    1
    44    84    83    2
    45    82    83    1
    46    82    85    1
    47    23    24    1
    48    83    89   am
    49   156   155    2
    50    87    85    1
    51    27    24    1
    52    24    25    1
    53   154   155    1
    54   154   153    1
    55    85    86    1
    56   155   158   am
    57    86    88    1
    58    89    90    1
    59    49    48    2
    60    90    93    1
    61    90    91    1
    62    93    94    1
    63   164   163   ar
    64   158   159    1
    65    25    26    2
    66    48    47    1
    67    48    50   am
    68    47    44    1
    69   159   160    1
    70   159   162    1
    71   161   160    2
    72    41    40    1
    73    91    92    2
    74    91    95   am
    75   152   151    1
    76   163   162    1
    77   163   165   ar
    78    46    45    2
    79    63    60    1
    80    42    40    1
    81    95    96    1
    82    44    45    1
    83    44    43    1
    84    40    37    1
    85    45    51   am
    86   151   148    1
    87    35    34    2
    88    60    59    1
    89    60    61    1
    90    98    97    2
    91    59    53   am
    92   150   149    2
    93    37    36    1
    94    37    38    1
    95   149   148    1
    96    96    97    1
    97    96    99    1
    98    34    36   am
    99    34    33    1
   100    32    33    1
   101   127   125    1
   102   148   147    1
   103    51    52    1
   104    53    52    1
   105    53    54    2
   106   114   116   ar
   107   114   112   ar
   108   116   115   ar
   109    52    55    1
   110    61    62    2
   111    38    39    2
   112   110   109    2
   113   125   124    2
   114   125   126    1
   115   124   123    1
   116    58    56    1
   117   145   143    1
   118   115   113   ar
   119   112   111    1
   120   112   113   ar
   121   142   141    2
   122   143   144    1
   123   143   140    1
   124    55    56    1
   125   111   108    1
   126   146   144    1
   127   109   108    1
   128   109   117   am
   129    56    57    1
   130   123   122    1
   131   108   107    1
   132   121   118    1
   133   121   122    1
   134   141   140    1
   135   106   100    1
   136   106   105    1
   137   140   139    1
   138   118   117    1
   139   118   119    1
   140   100   101    1
   141   105   104    1
   142   137   138   ar
   143   137   135   ar
   144   138   136   ar
   145   119   120    2
   146   103   102    2
   147   101   104    1
   148   101   102    1
   149   135   133   ar
   150   136   134   ar
   151   133   134   ar
   152   133   132    1
   153   128   129    1
   154   129   132    1
   155   129   130    1
   156   130   131    2
