@<TRIPOS>MOLECULE
tmp/2qreC00.pdb
 154 146 0 0 0
SMALL
GASTEIGER

@<TRIPOS>ATOM
      1  N         -3.3220  -19.7770   18.6430 N.3   138  ARG138     -0.1245
      2  CA        -3.3340  -19.7650   20.1030 C.3   138  ARG138      0.1563
      3  C         -3.2170  -18.3270   20.5980 C.2   138  ARG138      0.2260
      4  O         -2.6230  -18.0400   21.6460 O.2   138  ARG138     -0.2867
      5  CB        -2.2910  -20.7450   20.6900 C.3   138  ARG138      0.0307
      6  CG        -2.0150  -20.6740   22.2210 C.3   138  ARG138      0.0489
      7  CD        -3.1760  -21.1180   23.1130 C.3   138  ARG138      0.2205
      8  NE        -4.2240  -20.1010   23.1660 N.pl3 138  ARG138     -0.0865
      9  CZ        -5.4760  -20.2830   22.7450 C.cat 138  ARG138      0.5346
     10  NH1       -5.8740  -21.4680   22.2710 N.pl3 138  ARG138      0.1354
     11  NH2       -6.3410  -19.2820   22.8260 N.pl3 138  ARG138      0.1354
     12  N         -4.4580  -14.8620   22.2440 N.3   140  ARG140     -0.1245
     13  CA        -5.2790  -14.7060   23.4200 C.3   140  ARG140      0.1563
     14  C         -6.1270  -13.4380   23.3580 C.2   140  ARG140      0.2260
     15  O         -6.8820  -13.1590   24.2920 O.2   140  ARG140     -0.2867
     16  CB        -4.4280  -14.8120   24.6820 C.3   140  ARG140      0.0307
     17  CG        -3.6710  -16.1390   24.7720 C.3   140  ARG140      0.0489
     18  CD        -2.2440  -15.9680   25.3290 C.3   140  ARG140      0.2205
     19  NE        -1.4960  -17.2270   25.3350 N.pl3 140  ARG140     -0.0865
     20  CZ        -0.4890  -17.5110   24.5220 C.cat 140  ARG140      0.5346
     21  NH1       -0.0790  -16.6400   23.6290 N.pl3 140  ARG140      0.1354
     22  NH2        0.1160  -18.6760   24.6060 N.pl3 140  ARG140      0.1354
     23  N         -9.7070  -13.1340   25.5360 N.3   162  GLN162     -0.1245
     24  CA       -10.2720  -14.3530   26.1460 C.3   162  GLN162      0.1566
     25  C        -11.0040  -14.1010   27.4730 C.2   162  GLN162      0.2260
     26  O        -12.1610  -14.4700   27.6200 O.2   162  GLN162     -0.2867
     27  CB        -9.1940  -15.4320   26.3360 C.3   162  GLN162      0.0367
     28  CG        -8.5290  -15.9080   25.0520 C.3   162  GLN162      0.0905
     29  CD        -7.9460  -17.3030   25.1800 C.2   162  GLN162      0.2608
     30  OE1       -7.1370  -17.5760   26.0750 O.2   162  GLN162     -0.2717
     31  NE2       -8.3580  -18.2020   24.2810 N.am  162  GLN162     -0.0878
     32  N         -6.5530  -28.7980   30.4770 N.3   189  GLY189     -0.1210
     33  CA        -5.2690  -28.2780   30.9260 C.3   189  GLY189      0.1956
     34  C         -4.0810  -29.2170   30.7840 C.2   189  GLY189      0.2612
     35  O         -4.2120  -30.3480   30.3150 O.2   189  GLY189     -0.2717
     36  N         -2.9180  -28.7360   31.2060 N.am  190  THR190     -0.1952
     37  CA        -1.6870  -29.4990   31.1280 C.3   190  THR190      0.1897
     38  C         -1.3130  -29.9430   32.5280 C.2   190  THR190      0.2313
     39  O         -1.3950  -29.1650   33.4760 O.2   190  THR190     -0.2863
     40  CB        -0.5460  -28.6730   30.4890 C.3   190  THR190      0.1794
     41  OG1       -1.0550  -27.9700   29.3540 O.3   190  THR190     -0.2208
     42  CG2        0.6010  -29.5620   30.0320 C.3   190  THR190      0.0378
     43  N          5.1520  -29.4880   32.4740 N.3   194  LEU194     -0.1231
     44  CA         4.9610  -28.0550   32.5410 C.3   194  LEU194      0.1693
     45  C          6.3240  -27.3740   32.4500 C.2   194  LEU194      0.2591
     46  O          7.3150  -27.8930   32.9630 O.2   194  LEU194     -0.2718
     47  CB         4.2280  -27.6930   33.8330 C.3   194  LEU194      0.0284
     48  CG         2.9920  -28.5600   34.1120 C.3   194  LEU194      0.0019
     49  CD1        2.5540  -28.4390   35.5440 C.3   194  LEU194      0.0001
     50  CD2        1.8610  -28.2010   33.1900 C.3   194  LEU194      0.0001
     51  N          6.3850  -26.2430   31.7560 N.am  195  ALA195     -0.1980
     52  CA         7.5900  -25.4310   31.7190 C.3   195  ALA195      0.1597
     53  C          7.6630  -24.6640   33.0260 C.2   195  ALA195      0.2287
     54  O          6.6910  -23.9970   33.3880 O.2   195  ALA195     -0.2864
     55  CB         7.5290  -24.4740   30.5560 C.3   195  ALA195      0.0319
     56  N          7.3420  -22.9730   23.6430 N.3   213  LYS213     -0.1231
     57  CA         6.1130  -23.5810   24.1630 C.3   213  LYS213      0.1693
     58  C          4.8190  -22.9250   23.6670 C.2   213  LYS213      0.2592
     59  O          3.7650  -23.5420   23.7020 O.2   213  LYS213     -0.2718
     60  CB         6.1060  -23.5190   25.6920 C.3   213  LYS213      0.0285
     61  CG         6.7810  -24.6910   26.3980 C.3   213  LYS213      0.0035
     62  CD         5.8720  -25.2410   27.5320 C.3   213  LYS213      0.0206
     63  CE         5.7870  -26.7910   27.5090 C.3   213  LYS213      0.1093
     64  NZ         5.4030  -27.3540   28.8400 N.3   213  LYS213     -0.1314
     65  N          4.9290  -21.6890   23.1890 N.am  214  ASN214     -0.1960
     66  CA         3.8130  -20.7720   23.0150 C.3   214  ASN214      0.1819
     67  C          2.9110  -20.7700   24.2300 C.2   214  ASN214      0.2621
     68  O          1.8050  -21.3370   24.2300 O.2   214  ASN214     -0.2715
     69  CB         3.0320  -21.0140   21.7320 C.3   214  ASN214      0.1195
     70  CG         1.9630  -19.9570   21.5020 C.2   214  ASN214      0.2630
     71  OD1        1.8190  -19.0230   22.2890 O.2   214  ASN214     -0.2716
     72  ND2        1.2080  -20.1020   20.4230 N.am  214  ASN214     -0.0877
     73  N          3.4220  -20.1350   25.2770 N.am  215  ILE215     -0.1963
     74  CA         2.7060  -20.0090   26.5400 C.3   215  ILE215      0.1727
     75  C          2.6430  -18.5520   27.0000 C.2   215  ILE215      0.2617
     76  O          3.5330  -17.7650   26.6880 O.2   215  ILE215     -0.2715
     77  CB         3.2900  -20.9560   27.6360 C.3   215  ILE215      0.0290
     78  CG1        4.7950  -20.7630   27.7830 C.3   215  ILE215      0.0022
     79  CG2        2.9480  -22.4270   27.3200 C.3   215  ILE215      0.0023
     80  CD1        5.3580  -21.4780   28.9680 C.3   215  ILE215      0.0001
     81  N          1.5780  -18.1900   27.7110 N.am  216  SER216     -0.1936
     82  CA         1.4110  -16.8130   28.1670 C.3   216  SER216      0.2055
     83  C          2.2690  -16.5320   29.3920 C.2   216  SER216      0.2642
     84  O          2.6700  -15.3900   29.6190 O.2   216  SER216     -0.2714
     85  CB        -0.0530  -16.4950   28.4770 C.3   216  SER216      0.2130
     86  OG        -0.4200  -16.9600   29.7680 O.3   216  SER216     -0.2179
     87  N          2.5570  -17.5770   30.1660 N.am  217  ALA217     -0.1977
     88  CA         3.2320  -17.4260   31.4490 C.3   217  ALA217      0.1597
     89  C          4.0380  -18.6760   31.8270 C.2   217  ALA217      0.2287
     90  O          3.7910  -19.7590   31.2880 O.2   217  ALA217     -0.2864
     91  CB         2.2110  -17.1140   32.5180 C.3   217  ALA217      0.0319
     92  N          5.2790  -20.5990   35.5260 N.3   219  PRO219     -0.2116
     93  CA         5.2760  -20.5220   36.9930 C.3   219  PRO219      0.1372
     94  C          6.6700  -20.6570   37.6050 C.2   219  PRO219      0.2244
     95  O          7.5510  -21.3020   37.0350 O.2   219  PRO219     -0.2868
     96  CB         4.3830  -21.6990   37.4160 C.3   219  PRO219      0.0268
     97  CG         4.5110  -22.6920   36.3400 C.3   219  PRO219      0.0207
     98  CD         4.8020  -21.9090   35.0460 C.3   219  PRO219      0.0892
     99  N         -6.3940  -14.7710   35.1380 N.3   288  HIS288     -0.1226
    100  CA        -5.7660  -15.0290   33.8220 C.3   288  HIS288      0.1752
    101  C         -5.3350  -16.4810   33.6510 C.2   288  HIS288      0.2595
    102  O         -4.9790  -16.9150   32.5510 O.2   288  HIS288     -0.2718
    103  CB        -4.5970  -14.0620   33.5180 C.3   288  HIS288      0.0759
    104  CG        -5.0410  -12.6730   33.1550 C.ar  288  HIS288      0.0818
    105  ND1       -5.6930  -12.3820   31.9740 N.ar  288  HIS288     -0.2268
    106  CD2       -4.9440  -11.4990   33.8270 C.ar  288  HIS288      0.1154
    107  CE1       -5.9740  -11.0910   31.9320 C.ar  288  HIS288      0.1986
    108  NE2       -5.5290  -10.5320   33.0420 N.ar  288  HIS288     -0.2212
    109  N         -5.3720  -17.2270   34.7460 N.am  289  ARG289     -0.1980
    110  CA        -5.0120  -18.6370   34.7360 C.3   289  ARG289      0.1597
    111  C         -5.0880  -19.1770   36.1500 C.2   289  ARG289      0.2287
    112  O         -4.8960  -18.4350   37.1180 O.2   289  ARG289     -0.2864
    113  CB        -3.6080  -18.8730   34.1430 C.3   289  ARG289      0.0334
    114  CG        -2.4680  -18.1920   34.8860 C.3   289  ARG289      0.0492
    115  CD        -1.1420  -18.3970   34.1910 C.3   289  ARG289      0.2205
    116  NE        -1.0450  -17.5600   33.0100 N.pl3 289  ARG289     -0.0865
    117  CZ        -0.8350  -16.2510   33.0460 C.cat 289  ARG289      0.5346
    118  NH1       -0.6840  -15.6340   34.2120 N.pl3 289  ARG289      0.1354
    119  NH2       -0.7760  -15.5610   31.9140 N.pl3 289  ARG289      0.1354
    120  N         -1.6910  -26.9420   35.1000 N.3   302  ILE302     -0.1245
    121  CA        -2.1020  -25.5890   34.7040 C.3   302  ILE302      0.1561
    122  C         -3.3870  -25.6020   33.8770 C.2   302  ILE302      0.2260
    123  O         -3.4320  -26.1270   32.7680 O.2   302  ILE302     -0.2867
    124  CB        -0.9730  -24.8030   33.9400 C.3   302  ILE302      0.0252
    125  CG1        0.3530  -24.8440   34.7150 C.3   302  ILE302      0.0019
    126  CG2       -1.3900  -23.3480   33.6930 C.3   302  ILE302      0.0019
    127  CD1        1.5790  -24.6120   33.8710 C.3   302  ILE302      0.0001
    128  N         -5.6060  -23.1190   31.9780 N.3   304  SER304     -0.1202
    129  CA        -5.4450  -21.7940   31.3860 C.3   304  SER304      0.2020
    130  C         -6.7620  -21.3000   30.7620 C.2   304  SER304      0.2619
    131  O         -7.6580  -22.0890   30.4850 O.2   304  SER304     -0.2717
    132  CB        -4.2810  -21.8440   30.3860 C.3   304  SER304      0.2103
    133  OG        -4.5320  -21.1020   29.2190 O.3   304  SER304     -0.2182
    134  N         -6.8960  -19.9960   30.5600 N.am  305  LEU305     -0.1965
    135  CA        -8.1530  -19.4500   30.0200 C.3   305  LEU305      0.1728
    136  C         -8.5710  -20.0330   28.6520 C.2   305  LEU305      0.2616
    137  O         -9.7680  -20.2260   28.3990 O.2   305  LEU305     -0.2715
    138  CB        -8.1180  -17.9120   29.9680 C.3   305  LEU305      0.0311
    139  CG        -8.2560  -17.1120   31.2700 C.3   305  LEU305      0.0022
    140  CD1       -8.4210  -15.6240   30.9520 C.3   305  LEU305      0.0001
    141  CD2       -9.3970  -17.6050   32.1290 C.3   305  LEU305      0.0001
    142  N         -7.5900  -20.2830   27.7830 N.am  306  ALA306     -0.1963
    143  CA        -7.8230  -20.9540   26.5080 C.3   306  ALA306      0.1728
    144  C         -8.2520  -22.4110   26.7570 C.2   306  ALA306      0.2616
    145  O         -9.2040  -22.9180   26.1450 O.2   306  ALA306     -0.2715
    146  CB        -6.5760  -20.9020   25.6700 C.3   306  ALA306      0.0334
    147  N         -7.5540  -23.0750   27.6770 N.am  307  ASP307     -0.1971
    148  CA        -7.9700  -24.3780   28.1550 C.3   307  ASP307      0.1709
    149  C         -9.4570  -24.4110   28.4280 C.2   307  ASP307      0.2293
    150  O        -10.1140  -25.3990   28.1080 O.2   307  ASP307     -0.2864
    151  CB        -7.2340  -24.7450   29.4390 C.3   307  ASP307      0.1436
    152  CG        -5.8210  -25.1580   29.1920 C.2   307  ASP307      0.3671
    153  OD1       -5.5170  -25.5390   28.0410 O.co2 307  ASP307     -0.2456
    154  OD2       -5.0150  -25.1080   30.1450 O.co2 307  ASP307     -0.2456
@<TRIPOS>BOND
     1     1     2    1
     2     2     3    1
     3     2     5    1
     4    72    70   am
     5     3     4    2
     6     5     6    1
     7    70    69    1
     8    70    71    2
     9    69    66    1
    10     6     7    1
    11    12    13    1
    12    10     9    1
    13     9    11    1
    14     9     8    2
    15    66    65    1
    16    66    67    1
    17     7     8    1
    18    65    58   am
    19    14    13    1
    20    14    15    2
    21    13    16    1
    22    21    20    1
    23    56    57    1
    24    58    59    2
    25    58    57    1
    26    57    60    1
    27    68    67    2
    28    67    73   am
    29    31    29   am
    30    20    22    1
    31    20    19    2
    32    16    17    1
    33    17    18    1
    34    28    29    1
    35    28    27    1
    36    29    30    2
    37    73    74    1
    38    18    19    1
    39    23    24    1
    40   146   143    1
    41    60    61    1
    42   145   144    2
    43    24    27    1
    44    24    25    1
    45    61    62    1
    46   143   144    1
    47   143   142    1
    48    74    75    1
    49    74    77    1
    50    76    75    2
    51   144   147   am
    52    75    81   am
    53    79    77    1
    54    25    26    2
    55    63    62    1
    56    63    64    1
    57    77    78    1
    58   147   148    1
    59    81    82    1
    60    78    80    1
    61   142   136   am
    62   153   152   ar
    63   150   149    2
    64   148   149    1
    65   148   151    1
    66    82    85    1
    67    82    83    1
    68   137   136    2
    69    85    86    1
    70   136   135    1
    71   152   151    1
    72   152   154   ar
    73   133   132    1
    74    41    40    1
    75    83    84    2
    76    83    87   am
    77   138   135    1
    78   138   139    1
    79   135   134    1
    80    42    40    1
    81    87    88    1
    82    35    34    2
    83   132   129    1
    84    32    33    1
    85   131   130    2
    86    40    37    1
    87    55    52    1
    88   134   130   am
    89   130   129    1
    90    34    33    1
    91    34    36   am
    92   140   139    1
    93    37    36    1
    94    37    38    1
    95   139   141    1
    96    90    89    2
    97   129   128    1
    98    88    89    1
    99    88    91    1
   100    52    51    1
   101    52    53    1
   102    51    45   am
   103   119   117    1
   104   107   105   ar
   105   107   108   ar
   106   105   104   ar
   107    45    44    1
   108    45    46    2
   109    43    44    1
   110    38    39    2
   111    44    47    1
   112   102   101    2
   113   123   122    2
   114   116   117    2
   115   116   115    1
   116    53    54    2
   117   108   106   ar
   118   117   118    1
   119   104   103    1
   120   104   106   ar
   121    50    48    1
   122   103   100    1
   123   101   100    1
   124   101   109   am
   125   126   124    1
   126   100    99    1
   127    47    48    1
   128   127   125    1
   129   122   121    1
   130   124   121    1
   131   124   125    1
   132    48    49    1
   133   113   110    1
   134   113   114    1
   135   115   114    1
   136   121   120    1
   137   110   109    1
   138   110   111    1
   139    98    92    1
   140    98    97    1
   141    92    93    1
   142   111   112    2
   143    97    96    1
   144    93    96    1
   145    93    94    1
   146    95    94    2
