@<TRIPOS>MOLECULE
tmp/2qrgA00.pdb
 220 211 0 0 0
SMALL
GASTEIGER

@<TRIPOS>ATOM
      1  N         33.0540   20.3130   39.2420 N.3    77  GLU77      -0.1245
      2  CA        31.7310   20.7990   38.8500 C.3    77  GLU77       0.1567
      3  C         30.7590   19.6630   38.5340 C.2    77  GLU77       0.2260
      4  O         31.0960   18.7380   37.7980 O.2    77  GLU77      -0.2867
      5  CB        31.8370   21.7390   37.6430 C.3    77  GLU77       0.0388
      6  CG        32.6560   22.9990   37.9080 C.3    77  GLU77       0.1160
      7  CD        32.6310   23.9880   36.7630 C.2    77  GLU77       0.3649
      8  OE1       33.5970   24.7680   36.6470 O.co2  77  GLU77      -0.2457
      9  OE2       31.6520   24.0030   35.9870 O.co2  77  GLU77      -0.2457
     10  N         29.3470   25.6250   35.9550 N.3   122  ASN122     -0.1240
     11  CA        29.3160   26.8420   35.1490 C.3   122  ASN122      0.1653
     12  C         28.5090   26.7130   33.8700 C.2   122  ASN122      0.2266
     13  O         27.9360   27.6890   33.3900 O.2   122  ASN122     -0.2867
     14  CB        30.7400   27.2440   34.7850 C.3   122  ASN122      0.1155
     15  CG        31.4050   28.0220   35.8760 C.2   122  ASN122      0.2627
     16  OD1       31.0950   29.1960   36.0840 O.2   122  ASN122     -0.2716
     17  ND2       32.3170   27.3780   36.5980 N.am  122  ASN122     -0.0877
     18  N         28.7680   23.7970   30.3470 N.3   124  GLY124     -0.1210
     19  CA        28.9560   22.5260   29.6330 C.3   124  GLY124      0.1956
     20  C         29.7420   21.4400   30.3480 C.2   124  GLY124      0.2611
     21  O         29.3510   20.2700   30.3210 O.2   124  GLY124     -0.2717
     22  N         30.8490   21.8190   30.9840 N.am  125  LEU125     -0.1979
     23  CA        31.7210   20.8480   31.6610 C.3   125  LEU125      0.1596
     24  C         31.0140   20.2030   32.8580 C.2   125  LEU125      0.2287
     25  O         31.0510   18.9790   33.0260 O.2   125  LEU125     -0.2864
     26  CB        33.0550   21.5000   32.0790 C.3   125  LEU125      0.0297
     27  CG        34.0790   20.6590   32.8600 C.3   125  LEU125      0.0022
     28  CD1       35.5180   21.0060   32.4820 C.3   125  LEU125      0.0001
     29  CD2       33.8910   20.8290   34.3580 C.3   125  LEU125      0.0001
     30  N         28.0580   18.0630   31.6220 N.3   128  LEU128     -0.1245
     31  CA        28.5620   16.7880   31.0960 C.3   128  LEU128      0.1561
     32  C         28.7380   15.7620   32.2120 C.2   128  LEU128      0.2260
     33  O         28.3360   14.6060   32.0710 O.2   128  LEU128     -0.2867
     34  CB        29.8810   16.9720   30.3360 C.3   128  LEU128      0.0270
     35  CG        30.3720   15.7210   29.5840 C.3   128  LEU128      0.0019
     36  CD1       29.5920   15.5300   28.2800 C.3   128  LEU128      0.0001
     37  CD2       31.8690   15.8000   29.3140 C.3   128  LEU128      0.0001
     38  N         33.9190   28.9280   41.8230 N.3   263  TYR263     -0.1241
     39  CA        34.5120   29.9130   40.9120 C.3   263  TYR263      0.1605
     40  C         33.6830   29.9660   39.6240 C.2   263  TYR263      0.2264
     41  O         33.4850   28.9350   38.9790 O.2   263  TYR263     -0.2867
     42  CB        35.9740   29.5810   40.6210 C.3   263  TYR263      0.0534
     43  CG        36.9040   30.1260   41.6760 C.ar  263  TYR263     -0.0201
     44  CD1       37.1050   29.4450   42.8780 C.ar  263  TYR263     -0.0009
     45  CD2       37.5610   31.3390   41.4850 C.ar  263  TYR263     -0.0009
     46  CE1       37.9540   29.9560   43.8590 C.ar  263  TYR263      0.0417
     47  CE2       38.4090   31.8570   42.4540 C.ar  263  TYR263      0.0417
     48  CZ        38.6000   31.1590   43.6360 C.ar  263  TYR263      0.1957
     49  OH        39.4380   31.6790   44.5960 O.3   263  TYR263     -0.2866
     50  N         33.9570   30.9420   36.5300 N.3   265  ASN265     -0.1225
     51  CA        34.6360   31.1040   35.2440 C.3   265  ASN265      0.1785
     52  C         34.3780   29.9600   34.2750 C.2   265  ASN265      0.2597
     53  O         34.5270   28.7860   34.6250 O.2   265  ASN265     -0.2718
     54  CB        36.1420   31.2770   35.4500 C.3   265  ASN265      0.1169
     55  CG        36.4760   32.4680   36.3230 C.2   265  ASN265      0.2627
     56  OD1       35.9800   33.5750   36.1020 O.2   265  ASN265     -0.2716
     57  ND2       37.3130   32.2460   37.3300 N.am  265  ASN265     -0.0877
     58  N         33.9860   30.3170   33.0580 N.am  266  ASP266     -0.1960
     59  CA        33.8150   29.3530   31.9840 C.3   266  ASP266      0.1840
     60  C         34.9890   29.5210   31.0260 C.2   266  ASP266      0.2622
     61  O         35.2100   30.6090   30.4910 O.2   266  ASP266     -0.2715
     62  CB        32.4780   29.5920   31.2730 C.3   266  ASP266      0.1450
     63  CG        32.1070   28.4670   30.3210 C.2   266  ASP266      0.3671
     64  OD1       31.1950   27.6830   30.6570 O.co2 266  ASP266     -0.2456
     65  OD2       32.7240   28.3640   29.2420 O.co2 266  ASP266     -0.2456
     66  N         35.7530   28.4460   30.8290 N.am  267  ASN267     -0.1958
     67  CA        36.9070   28.4690   29.9230 C.3   267  ASN267      0.1819
     68  C         37.9100   29.5730   30.2490 C.2   267  ASN267      0.2621
     69  O         38.3900   30.2700   29.3560 O.2   267  ASN267     -0.2715
     70  CB        36.4500   28.5940   28.4670 C.3   267  ASN267      0.1195
     71  CG        36.1190   27.2650   27.8560 C.2   267  ASN267      0.2630
     72  OD1       37.0110   26.5210   27.4560 O.2   267  ASN267     -0.2716
     73  ND2       34.8320   26.9490   27.7850 N.am  267  ASN267     -0.0877
     74  N         38.2090   29.7320   31.5340 N.am  268  PHE268     -0.1960
     75  CA        39.1960   30.7060   31.9830 C.3   268  PHE268      0.1771
     76  C         39.8640   30.2090   33.2580 C.2   268  PHE268      0.2619
     77  O         39.1940   29.7180   34.1700 O.2   268  PHE268     -0.2715
     78  CB        38.5430   32.0770   32.1960 C.3   268  PHE268      0.0574
     79  CG        39.5170   33.1720   32.5460 C.ar  268  PHE268     -0.0200
     80  CD1       40.3160   33.7520   31.5670 C.ar  268  PHE268     -0.0042
     81  CD2       39.6260   33.6290   33.8540 C.ar  268  PHE268     -0.0042
     82  CE1       41.2200   34.7660   31.8890 C.ar  268  PHE268     -0.0003
     83  CE2       40.5250   34.6420   34.1860 C.ar  268  PHE268     -0.0003
     84  CZ        41.3240   35.2090   33.2020 C.ar  268  PHE268     -0.0000
     85  N         41.1900   30.3190   33.3010 N.am  269  PHE269     -0.1974
     86  CA        41.9580   29.9170   34.4700 C.3   269  PHE269      0.1639
     87  C         42.2540   31.1260   35.3490 C.2   269  PHE269      0.2290
     88  O         42.8890   32.0870   34.9070 O.2   269  PHE269     -0.2864
     89  CB        43.2610   29.2200   34.0510 C.3   269  PHE269      0.0560
     90  CG        44.2240   28.9830   35.1880 C.ar  269  PHE269     -0.0200
     91  CD1       45.4910   29.5640   35.1770 C.ar  269  PHE269     -0.0042
     92  CD2       43.8640   28.1860   36.2710 C.ar  269  PHE269     -0.0042
     93  CE1       46.3870   29.3450   36.2290 C.ar  269  PHE269     -0.0003
     94  CE2       44.7500   27.9650   37.3250 C.ar  269  PHE269     -0.0003
     95  CZ        46.0160   28.5440   37.2960 C.ar  269  PHE269     -0.0000
     96  N         41.3300   28.6440   45.0520 N.3   275  ARG275     -0.1245
     97  CA        41.0110   27.6460   44.0290 C.3   275  ARG275      0.1563
     98  C         41.9310   26.4280   44.1250 C.2   275  ARG275      0.2260
     99  O         41.4720   25.2910   44.0000 O.2   275  ARG275     -0.2867
    100  CB        41.0580   28.2640   42.6300 C.3   275  ARG275      0.0307
    101  CG        40.9620   27.2580   41.4800 C.3   275  ARG275      0.0489
    102  CD        39.5990   26.5750   41.3940 C.3   275  ARG275      0.2205
    103  NE        39.4970   25.8150   40.1500 N.pl3 275  ARG275     -0.0865
    104  CZ        38.3610   25.4300   39.5750 C.cat 275  ARG275      0.5346
    105  NH1       37.1870   25.7190   40.1270 N.pl3 275  ARG275      0.1354
    106  NH2       38.4060   24.7580   38.4290 N.pl3 275  ARG275      0.1354
    107  N         39.0640   17.2230   33.1260 N.3   313  ASP313     -0.1239
    108  CA        40.0870   18.2500   32.8740 C.3   313  ASP313      0.1674
    109  C         41.2230   18.1730   33.9080 C.2   313  ASP313      0.2266
    110  O         41.3660   17.1570   34.5870 O.2   313  ASP313     -0.2867
    111  CB        39.4930   19.6620   32.7570 C.3   313  ASP313      0.1410
    112  CG        40.2430   20.5130   31.7490 C.2   313  ASP313      0.3668
    113  OD1       39.9460   20.4200   30.5370 O.co2 313  ASP313     -0.2456
    114  OD2       41.1520   21.2550   32.1690 O.co2 313  ASP313     -0.2456
    115  N         41.5760   20.0310   36.5450 N.3   315  HIS315     -0.1241
    116  CA        41.1780   20.5620   37.8480 C.3   315  HIS315      0.1621
    117  C         41.4800   19.6090   39.0200 C.2   315  HIS315      0.2264
    118  O         41.9300   20.0640   40.0730 O.2   315  HIS315     -0.2867
    119  CB        39.7230   21.0670   37.8390 C.3   315  HIS315      0.0745
    120  CG        39.3750   21.8800   36.6260 C.ar  315  HIS315      0.0817
    121  ND1       38.0940   21.9570   36.1240 N.ar  315  HIS315     -0.2268
    122  CD2       40.1470   22.6300   35.8020 C.ar  315  HIS315      0.1154
    123  CE1       38.0890   22.7310   35.0530 C.ar  315  HIS315      0.1986
    124  NE2       39.3230   23.1500   34.8340 N.ar  315  HIS315     -0.2212
    125  N         39.2080   19.2360   27.8330 N.3   351  HIS351     -0.1226
    126  CA        37.9390   19.8390   27.4120 C.3   351  HIS351      0.1752
    127  C         38.0800   21.1670   26.6570 C.2   351  HIS351      0.2596
    128  O         37.0790   21.7570   26.2600 O.2   351  HIS351     -0.2718
    129  CB        37.0200   20.0580   28.6240 C.3   351  HIS351      0.0759
    130  CG        36.5760   18.7960   29.2970 C.ar  351  HIS351      0.0818
    131  ND1       35.3970   18.1570   28.9780 N.ar  351  HIS351     -0.2268
    132  CD2       37.1450   18.0660   30.2860 C.ar  351  HIS351      0.1154
    133  CE1       35.2630   17.0820   29.7340 C.ar  351  HIS351      0.1986
    134  NE2       36.3100   17.0040   30.5380 N.ar  351  HIS351     -0.2212
    135  N         39.3080   21.6450   26.4610 N.am  352  THR352     -0.1953
    136  CA        39.5090   22.9510   25.8220 C.3   352  THR352      0.1897
    137  C         40.9350   23.1530   25.3200 C.2   352  THR352      0.2313
    138  O         41.8790   22.6070   25.8890 O.2   352  THR352     -0.2863
    139  CB        39.0930   24.1250   26.7610 C.3   352  THR352      0.1794
    140  OG1       39.1720   25.3720   26.0560 O.3   352  THR352     -0.2208
    141  CG2       39.9530   24.1710   28.0300 C.3   352  THR352      0.0378
    142  N         42.5090   29.1670   29.3170 N.3   357  ALA357     -0.1245
    143  CA        41.7550   28.2080   30.1280 C.3   357  ALA357      0.1562
    144  C         42.6460   27.1210   30.7330 C.2   357  ALA357      0.2260
    145  O         42.2160   26.3780   31.6200 O.2   357  ALA357     -0.2867
    146  CB        40.6400   27.5770   29.2980 C.3   357  ALA357      0.0290
    147  N         37.0700   15.5480   23.2980 N.3   429  VAL429     -0.1245
    148  CA        35.6280   15.4070   23.5280 C.3   429  VAL429      0.1561
    149  C         34.7880   15.4930   22.2490 C.2   429  VAL429      0.2260
    150  O         33.5560   15.4990   22.2990 O.2   429  VAL429     -0.2867
    151  CB        35.1340   16.4140   24.6040 C.3   429  VAL429      0.0252
    152  CG1       35.7050   16.0430   25.9750 C.3   429  VAL429      0.0019
    153  CG2       35.5080   17.8520   24.2340 C.3   429  VAL429      0.0019
    154  N         31.3780   13.7550   23.0620 N.3   458  ASN458     -0.1240
    155  CA        30.4110   14.0440   24.1190 C.3   458  ASN458      0.1653
    156  C         28.9930   13.5830   23.7800 C.2   458  ASN458      0.2266
    157  O         28.6790   13.2680   22.6330 O.2   458  ASN458     -0.2867
    158  CB        30.3980   15.5490   24.4300 C.3   458  ASN458      0.1155
    159  CG        31.5360   15.9820   25.3600 C.2   458  ASN458      0.2627
    160  OD1       31.7700   17.1850   25.5540 O.2   458  ASN458     -0.2716
    161  ND2       32.2230   15.0210   25.9500 N.am  458  ASN458     -0.0877
    162  N         34.5800   33.7700   22.1510 N.3   547  TYR547     -0.1227
    163  CA        34.7300   32.6590   21.2030 C.3   547  TYR547      0.1736
    164  C         33.4040   32.0930   20.7030 C.2   547  TYR547      0.2595
    165  O         33.3430   31.5720   19.5920 O.2   547  TYR547     -0.2718
    166  CB        35.6760   31.5610   21.7200 C.3   547  TYR547      0.0548
    167  CG        35.0660   30.4410   22.5390 C.ar  547  TYR547     -0.0200
    168  CD1       34.5050   29.3170   21.9230 C.ar  547  TYR547     -0.0009
    169  CD2       35.1060   30.4750   23.9310 C.ar  547  TYR547     -0.0009
    170  CE1       33.9680   28.2740   22.6810 C.ar  547  TYR547      0.0417
    171  CE2       34.5760   29.4420   24.6930 C.ar  547  TYR547      0.0417
    172  CZ        34.0080   28.3470   24.0690 C.ar  547  TYR547      0.1957
    173  OH        33.4890   27.3250   24.8410 O.3   547  TYR547     -0.2866
    174  N         32.3560   32.2040   21.5190 N.am  548  LYS548     -0.1980
    175  CA        31.0270   31.7010   21.1570 C.3   548  LYS548      0.1596
    176  C         30.2790   32.6690   20.2300 C.2   548  LYS548      0.2287
    177  O         29.2350   32.3300   19.6620 O.2   548  LYS548     -0.2864
    178  CB        30.2090   31.3950   22.4150 C.3   548  LYS548      0.0298
    179  CG        30.7300   30.1850   23.2080 C.3   548  LYS548      0.0038
    180  CD        30.0150   30.0480   24.5460 C.3   548  LYS548      0.0206
    181  CE        30.6290   28.9680   25.4270 C.3   548  LYS548      0.1093
    182  NZ        30.2450   27.5740   25.0130 N.3   548  LYS548     -0.1314
    183  N         37.4570   26.4020   18.1800 N.3   645  THR645     -0.1203
    184  CA        37.4130   26.9790   19.5320 C.3   645  THR645      0.1994
    185  C         36.4630   26.2690   20.5020 C.2   645  THR645      0.2618
    186  O         36.7510   26.1770   21.6960 O.2   645  THR645     -0.2717
    187  CB        37.0900   28.4940   19.5110 C.3   645  THR645      0.1784
    188  OG1       35.7830   28.7080   18.9590 O.3   645  THR645     -0.2211
    189  CG2       38.1210   29.2600   18.6860 C.3   645  THR645      0.0376
    190  N         35.3310   25.7780   19.9980 N.am  646  GLU646     -0.1965
    191  CA        34.4010   25.0190   20.8310 C.3   646  GLU646      0.1733
    192  C         34.7960   23.5520   20.7620 C.2   646  GLU646      0.2616
    193  O         34.5800   22.9100   19.7390 O.2   646  GLU646     -0.2715
    194  CB        32.9530   25.2060   20.3540 C.3   646  GLU646      0.0429
    195  CG        31.9000   24.6740   21.3310 C.3   646  GLU646      0.1163
    196  CD        31.7270   25.5750   22.5390 C.2   646  GLU646      0.3649
    197  OE1       32.3850   25.3140   23.5690 O.co2 646  GLU646     -0.2457
    198  OE2       30.9520   26.5540   22.4580 O.co2 646  GLU646     -0.2457
    199  N         35.3820   23.0320   21.8440 N.am  647  ALA647     -0.1963
    200  CA        35.8950   21.6580   21.8610 C.3   647  ALA647      0.1728
    201  C         34.8470   20.6400   21.4020 C.2   647  ALA647      0.2617
    202  O         35.1290   19.7940   20.5530 O.2   647  ALA647     -0.2715
    203  CB        36.4340   21.2960   23.2360 C.3   647  ALA647      0.0334
    204  N         33.6370   20.7380   21.9520 N.am  648  SER648     -0.1936
    205  CA        32.5310   19.8980   21.5010 C.3   648  SER648      0.2055
    206  C         31.2430   20.7020   21.4120 C.2   648  SER648      0.2644
    207  O         30.6440   20.8340   20.3360 O.2   648  SER648     -0.2714
    208  CB        32.3570   18.6990   22.4430 C.3   648  SER648      0.2130
    209  OG        31.1540   17.9960   22.1890 O.3   648  SER648     -0.2179
    210  N         30.8380   21.2680   22.5430 N.am  649  GLY649     -0.1939
    211  CA        29.4820   21.7720   22.6980 C.3   649  GLY649      0.2014
    212  C         28.5790   20.6120   23.0780 C.2   649  GLY649      0.2639
    213  O         28.8220   19.4640   22.6840 O.2   649  GLY649     -0.2714
    214  N         27.5520   20.9020   23.8680 N.am  650  THR650     -0.1950
    215  CA        26.5340   19.9110   24.2180 C.3   650  THR650      0.1897
    216  C         25.1350   20.4950   24.0680 C.2   650  THR650      0.2313
    217  O         24.1750   19.7540   23.8440 O.2   650  THR650     -0.2863
    218  CB        26.6980   19.3770   25.6470 C.3   650  THR650      0.1794
    219  OG1       26.8300   20.4780   26.5470 O.3   650  THR650     -0.2208
    220  CG2       27.9220   18.4650   25.7570 C.3   650  THR650      0.0378
@<TRIPOS>BOND
     1   183   184    1
     2   189   187    1
     3   188   187    1
     4   187   184    1
     5   184   185    1
     6   165   164    2
     7   177   176    2
     8   193   192    2
     9   190   185   am
    10   190   191    1
    11   176   175    1
    12   207   206    2
    13   194   191    1
    14   194   195    1
    15   185   186    2
    16   202   201    2
    17   164   163    1
    18   164   174   am
    19   192   191    1
    20   192   199   am
    21   175   174    1
    22   175   178    1
    23   163   166    1
    24   163   162    1
    25   195   196    1
    26   201   200    1
    27   201   204   am
    28   206   205    1
    29   206   210   am
    30   205   204    1
    31   205   208    1
    32   166   167    1
    33   199   200    1
    34   200   203    1
    35   168   167   ar
    36   168   170   ar
    37   209   208    1
    38   149   150    2
    39   149   148    1
    40   178   179    1
    41   198   196   ar
    42   167   169   ar
    43   196   197   ar
    44   210   211    1
    45   157   156    2
    46   170   172   ar
    47   213   212    2
    48   211   212    1
    49   154   155    1
    50   212   214   am
    51   179   180    1
    52   147   148    1
    53   148   151    1
    54   156   155    1
    55   217   216    2
    56   214   215    1
    57   169   171   ar
    58   216   215    1
    59   172   171   ar
    60   172   173    1
    61   155   158    1
    62   215   218    1
    63   153   151    1
    64   158   159    1
    65   180   181    1
    66   151   152    1
    67   182   181    1
    68   137   136    1
    69   137   138    2
    70   159   160    2
    71   159   161   am
    72   218   220    1
    73   218   219    1
    74   136   135    1
    75   136   139    1
    76   140   139    1
    77   128   127    2
    78   135   127   am
    79   127   126    1
    80   139   141    1
    81   126   125    1
    82   126   129    1
    83    72    71    2
    84    73    71   am
    85    71    70    1
    86    36    35    1
    87    70    67    1
    88   129   130    1
    89   131   130   ar
    90   131   133   ar
    91    65    63   ar
    92   130   132   ar
    93   146   143    1
    94    37    35    1
    95   142   143    1
    96    69    68    2
    97    35    34    1
    98    19    18    1
    99    19    20    1
   100   133   134   ar
   101    67    68    1
   102    67    66    1
   103   143   144    1
   104    68    74   am
   105   132   134   ar
   106    21    20    2
   107    63    64   ar
   108    63    62    1
   109    34    31    1
   110    20    22   am
   111    61    60    2
   112   113   112   ar
   113   144   145    2
   114    66    60   am
   115    22    23    1
   116    60    59    1
   117    31    30    1
   118    31    32    1
   119    62    59    1
   120    74    75    1
   121    80    82   ar
   122    80    79   ar
   123    23    26    1
   124    23    24    1
   125   112   114   ar
   126   112   111    1
   127    82    84   ar
   128    75    78    1
   129    75    76    1
   130    59    58    1
   131    33    32    2
   132    26    27    1
   133    78    79    1
   134    28    27    1
   135    79    81   ar
   136   111   108    1
   137    24    25    2
   138    27    29    1
   139   108   107    1
   140   108   109    1
   141    58    52   am
   142    84    83   ar
   143    76    85   am
   144    76    77    2
   145    85    86    1
   146    13    12    2
   147    81    83   ar
   148    12    11    1
   149   109   110    2
   150    89    86    1
   151    89    90    1
   152    52    53    2
   153    52    51    1
   154    86    87    1
   155    14    11    1
   156    14    15    1
   157   124   123   ar
   158   124   122   ar
   159    88    87    2
   160   123   121   ar
   161    11    10    1
   162    91    90   ar
   163    91    93   ar
   164    90    92   ar
   165    51    54    1
   166    51    50    1
   167    54    55    1
   168   122   120   ar
   169    15    16    2
   170    15    17   am
   171     9     7   ar
   172    56    55    2
   173   121   120   ar
   174    93    95   ar
   175    92    94   ar
   176    55    57   am
   177   115   116    1
   178   120   119    1
   179     8     7   ar
   180     7     6    1
   181    95    94   ar
   182     5     6    1
   183     5     2    1
   184     4     3    2
   185   119   116    1
   186   116   117    1
   187   106   104    1
   188     3     2    1
   189     2     1    1
   190    41    40    2
   191   117   118    2
   192   104   105    1
   193   104   103    2
   194    40    39    1
   195   103   102    1
   196    42    39    1
   197    42    43    1
   198    39    38    1
   199   102   101    1
   200   101   100    1
   201    45    43   ar
   202    45    47   ar
   203    43    44   ar
   204    47    48   ar
   205   100    97    1
   206    44    46   ar
   207    48    46   ar
   208    48    49    1
   209    99    98    2
   210    97    98    1
   211    97    96    1
