@<TRIPOS>MOLECULE
tmp/2qrkA00.pdb
 109 101 0 0 0
SMALL
GASTEIGER

@<TRIPOS>ATOM
      1  N         22.5260    4.8950    5.3680 N.3   134  GLY134     -0.1225
      2  CA        23.2170    4.5880    6.6330 C.3   134  GLY134      0.1811
      3  C         22.9580    5.6020    7.7360 C.2   134  GLY134      0.2280
      4  O         22.7690    5.2280    8.9060 O.2   134  GLY134     -0.2866
      5  N         29.9860    1.3440   18.0520 N.3   197  ILE197     -0.1231
      6  CA        31.0650    0.8070   17.2020 C.3   197  ILE197      0.1692
      7  C         30.8080    1.1980   15.7500 C.2   197  ILE197      0.2592
      8  O         29.7040    1.0050   15.2470 O.2   197  ILE197     -0.2718
      9  CB        31.2900   -0.7140   17.4110 C.3   197  ILE197      0.0266
     10  CG1       31.9300   -0.9420   18.7950 C.3   197  ILE197      0.0019
     11  CG2       32.1970   -1.2880   16.2850 C.3   197  ILE197      0.0020
     12  CD1       32.0860   -2.4680   19.1900 C.3   197  ILE197      0.0001
     13  N         31.8310    1.7570   15.1050 N.am  198  GLY198     -0.1957
     14  CA        31.7090    2.3590   13.7610 C.3   198  GLY198      0.1869
     15  C         31.2350    3.8000   13.8540 C.2   198  GLY198      0.2309
     16  O         30.4920    4.2700   12.9700 O.2   198  GLY198     -0.2863
     17  N         32.5690    6.6980   13.3820 N.3   200  LEU200     -0.1231
     18  CA        33.0680    7.7550   12.5040 C.3   200  LEU200      0.1693
     19  C         32.3810    7.8290   11.1260 C.2   200  LEU200      0.2593
     20  O         32.5340    8.8360   10.4230 O.2   200  LEU200     -0.2718
     21  CB        34.6140    7.6900   12.3660 C.3   200  LEU200      0.0284
     22  CG        35.4300    7.8630   13.6740 C.3   200  LEU200      0.0019
     23  CD1       36.9300    7.7840   13.3760 C.3   200  LEU200      0.0001
     24  CD2       35.0670    9.1670   14.4390 C.3   200  LEU200      0.0001
     25  N         31.6290    6.8040   10.7440 N.am  201  GLY201     -0.1942
     26  CA        31.0240    6.7870    9.4180 C.3   201  GLY201      0.2014
     27  C         29.6450    7.4400    9.4050 C.2   201  GLY201      0.2639
     28  O         29.2250    8.0930   10.3810 O.2   201  GLY201     -0.2714
     29  N         28.9280    7.2410    8.3080 N.am  202  ARG202     -0.1963
     30  CA        27.6080    7.8820    8.1520 C.3   202  ARG202      0.1729
     31  C         26.6030    7.3560    9.1990 C.2   202  ARG202      0.2616
     32  O         25.8650    8.1410    9.8020 O.2   202  ARG202     -0.2715
     33  CB        27.0190    7.6100    6.8450 C.3   202  ARG202      0.0348
     34  CG        27.8810    8.0420    5.6910 C.3   202  ARG202      0.0492
     35  CD        27.1690    7.7890    4.3590 C.3   202  ARG202      0.2205
     36  NE        25.7770    8.1580    4.4290 N.pl3 202  ARG202     -0.0865
     37  CZ        24.6950    7.4800    4.1510 C.cat 202  ARG202      0.5346
     38  NH1       24.6600    6.2520    3.6670 N.pl3 202  ARG202      0.1354
     39  NH2       23.5040    8.0690    4.3700 N.pl3 202  ARG202      0.1354
     40  N         26.5670    6.0320    9.3790 N.am  203  CYS203     -0.1968
     41  CA        25.6830    5.3880   10.3340 C.3   203  CYS203      0.1712
     42  C         25.9880    5.8910   11.7650 C.2   203  CYS203      0.2296
     43  O         25.0730    6.3070   12.5070 O.2   203  CYS203     -0.2864
     44  CB        25.8470    3.8700   10.2230 C.3   203  CYS203      0.0983
     45  SG        24.6220    2.9970   11.1270 S.3   203  CYS203     -0.0798
     46  N         35.8440    3.2090   16.7840 N.3   225  ASP225     -0.1225
     47  CA        35.9970    2.9010   15.3820 C.3   225  ASP225      0.1805
     48  C         37.1230    1.8590   15.2340 C.2   225  ASP225      0.2597
     49  O         37.3780    1.0840   16.1760 O.2   225  ASP225     -0.2718
     50  CB        36.2040    4.1940   14.5590 C.3   225  ASP225      0.1424
     51  CG        35.7050    4.0540   13.1240 C.2   225  ASP225      0.3668
     52  OD1       34.5110    4.3420   12.8400 O.co2 225  ASP225     -0.2456
     53  OD2       36.5120    3.6120   12.2630 O.co2 225  ASP225     -0.2456
     54  N         37.7680    1.8180   14.0700 N.am  226  ILE226     -0.1980
     55  CA        38.7330    0.7470   13.7640 C.3   226  ILE226      0.1595
     56  C         39.8390    0.6090   14.8200 C.2   226  ILE226      0.2287
     57  O         40.1470   -0.5120   15.2500 O.2   226  ILE226     -0.2864
     58  CB        39.3220    0.8680   12.3330 C.3   226  ILE226      0.0276
     59  CG1       38.2570    0.4450   11.3140 C.3   226  ILE226      0.0022
     60  CG2       40.5810   -0.0300   12.1940 C.3   226  ILE226      0.0022
     61  CD1       38.5970    0.7940    9.8380 C.3   226  ILE226      0.0001
     62  N         38.6560   -1.2920   18.0520 N.3   229  THR229     -0.1218
     63  CA        38.2860   -2.6940   17.8990 C.3   229  THR229      0.1862
     64  C         39.4670   -3.5530   17.4360 C.2   229  THR229      0.2287
     65  O         39.3780   -4.7910   17.4470 O.2   229  THR229     -0.2866
     66  CB        37.1390   -2.8880   16.8900 C.3   229  THR229      0.1770
     67  OG1       37.5200   -2.3200   15.6290 O.3   229  THR229     -0.2211
     68  CG2       35.8290   -2.2350   17.4030 C.3   229  THR229      0.0375
     69  N         27.2080   -0.0480   14.4090 N.3   247  CYS247     -0.1221
     70  CA        26.9520    0.7540   13.1920 C.3   247  CYS247      0.1808
     71  C         27.7840    0.3250   11.9800 C.2   247  CYS247      0.2601
     72  O         27.9480    1.1120   11.0240 O.2   247  CYS247     -0.2717
     73  CB        27.2200    2.2390   13.4670 C.3   247  CYS247      0.0970
     74  SG        26.0040    3.0300   14.4950 S.3   247  CYS247     -0.0800
     75  N         28.2870   -0.9010   12.0080 N.am  248  ILE248     -0.1979
     76  CA        29.1280   -1.4020   10.9250 C.3   248  ILE248      0.1595
     77  C         28.8110   -2.8780   10.6670 C.2   248  ILE248      0.2287
     78  O         28.7100   -3.6880   11.5970 O.2   248  ILE248     -0.2864
     79  CB        30.6380   -1.1700   11.2230 C.3   248  ILE248      0.0276
     80  CG1       31.5480   -1.6630   10.0610 C.3   248  ILE248      0.0022
     81  CG2       31.0340   -1.8510   12.5450 C.3   248  ILE248      0.0022
     82  CD1       31.2930   -0.9910    8.6970 C.3   248  ILE248      0.0001
     83  N         29.9190   -6.3420    9.7090 N.3   250  LEU250     -0.1245
     84  CA        31.1120   -7.1590    9.6210 C.3   250  LEU250      0.1561
     85  C         30.7120   -8.6200    9.5130 C.2   250  LEU250      0.2260
     86  O         29.8770   -9.1040   10.2860 O.2   250  LEU250     -0.2867
     87  CB        32.0470   -6.9280   10.8100 C.3   250  LEU250      0.0270
     88  CG        33.4920   -6.6820   10.3670 C.3   250  LEU250      0.0019
     89  CD1       33.7080   -5.2140    9.9760 C.3   250  LEU250      0.0001
     90  CD2       34.4690   -7.0970   11.4470 C.3   250  LEU250      0.0001
     91  N         36.1440  -13.1310   12.5780 N.3   254  ILE254     -0.1245
     92  CA        37.0120  -12.5500   13.6310 C.3   254  ILE254      0.1561
     93  C         36.4550  -12.9140   15.0140 C.2   254  ILE254      0.2260
     94  O         35.3750  -13.4730   15.0970 O.2   254  ILE254     -0.2867
     95  CB        37.1310  -11.0020   13.4980 C.3   254  ILE254      0.0252
     96  CG1       35.7550  -10.3340   13.6310 C.3   254  ILE254      0.0019
     97  CG2       37.7950  -10.6230   12.1710 C.3   254  ILE254      0.0019
     98  CD1       35.7930   -8.8880   14.1580 C.3   254  ILE254      0.0001
     99  N         32.5460   -9.4000   19.3160 N.3   257  PHE257     -0.1241
    100  CA        32.5860   -8.1860   20.1370 C.3   257  PHE257      0.1605
    101  C         32.1620   -8.4840   21.5760 C.2   257  PHE257      0.2264
    102  O         32.6800   -7.9070   22.5350 O.2   257  PHE257     -0.2867
    103  CB        31.6540   -7.1100   19.5580 C.3   257  PHE257      0.0534
    104  CG        32.0810   -6.5710   18.2140 C.ar  257  PHE257     -0.0203
    105  CD1       33.3250   -6.8790   17.6720 C.ar  257  PHE257     -0.0042
    106  CD2       31.2340   -5.7120   17.5040 C.ar  257  PHE257     -0.0042
    107  CE1       33.7060   -6.3590   16.4290 C.ar  257  PHE257     -0.0003
    108  CE2       31.6030   -5.1850   16.2610 C.ar  257  PHE257     -0.0003
    109  CZ        32.8400   -5.5070   15.7280 C.ar  257  PHE257     -0.0000
@<TRIPOS>BOND
     1    38    37    1
     2    37    39    1
     3    37    36    2
     4    35    36    1
     5    35    34    1
     6     1     2    1
     7    34    33    1
     8     2     3    1
     9    33    30    1
    10     3     4    2
    11    30    29    1
    12    30    31    1
    13    29    27   am
    14    82    80    1
    15    31    40   am
    16    31    32    2
    17    40    41    1
    18    27    26    1
    19    27    28    2
    20    26    25    1
    21    85    84    1
    22    85    86    2
    23    84    83    1
    24    84    87    1
    25    61    59    1
    26    89    88    1
    27    80    79    1
    28    44    41    1
    29    44    45    1
    30    41    42    1
    31    88    87    1
    32    88    90    1
    33    20    19    2
    34    77    76    1
    35    77    78    2
    36    25    19   am
    37    76    79    1
    38    76    75    1
    39    72    71    2
    40    19    18    1
    41    79    81    1
    42    59    58    1
    43    42    43    2
    44    71    75   am
    45    71    70    1
    46    97    95    1
    47    60    58    1
    48    53    51   ar
    49    58    55    1
    50    21    18    1
    51    21    22    1
    52    18    17    1
    53    91    92    1
    54    52    51   ar
    55    16    15    2
    56    51    50    1
    57    70    73    1
    58    70    69    1
    59    23    22    1
    60    73    74    1
    61    95    96    1
    62    95    92    1
    63    96    98    1
    64    92    93    1
    65    22    24    1
    66    14    15    1
    67    14    13    1
    68    55    54    1
    69    55    56    1
    70    54    48   am
    71    50    47    1
    72    56    57    2
    73    93    94    2
    74    13     7   am
    75    48    47    1
    76    48    49    2
    77     8     7    2
    78    47    46    1
    79    67    66    1
    80   109   108   ar
    81   109   107   ar
    82     7     6    1
    83   108   106   ar
    84    11     9    1
    85   107   105   ar
    86    66    68    1
    87    66    63    1
    88     6     9    1
    89     6     5    1
    90     9    10    1
    91    64    65    2
    92    64    63    1
    93   106   104   ar
    94   105   104   ar
    95    63    62    1
    96   104   103    1
    97    10    12    1
    98    99   100    1
    99   103   100    1
   100   100   101    1
   101   101   102    2
