@<TRIPOS>MOLECULE
tmp/2qrmA00.pdb
 233 224 0 0 0
SMALL
GASTEIGER

@<TRIPOS>ATOM
      1  N         33.0850   20.3590   39.2920 N.3    77  GLU77      -0.1245
      2  CA        31.7430   20.8180   38.9210 C.3    77  GLU77       0.1567
      3  C         30.7850   19.6650   38.6230 C.2    77  GLU77       0.2260
      4  O         31.1410   18.7210   37.9180 O.2    77  GLU77      -0.2867
      5  CB        31.8070   21.7470   37.7020 C.3    77  GLU77       0.0388
      6  CG        32.6270   23.0210   37.9100 C.3    77  GLU77       0.1160
      7  CD        32.5240   23.9860   36.7420 C.2    77  GLU77       0.3649
      8  OE1       33.3980   24.8680   36.6320 O.co2  77  GLU77      -0.2457
      9  OE2       31.5730   23.8710   35.9370 O.co2  77  GLU77      -0.2457
     10  N         29.4090   25.6350   36.0240 N.3   122  ASN122     -0.1225
     11  CA        29.3930   26.8610   35.2290 C.3   122  ASN122      0.1785
     12  C         28.5970   26.7400   33.9350 C.2   122  ASN122      0.2598
     13  O         28.0060   27.7130   33.4630 O.2   122  ASN122     -0.2718
     14  CB        30.8260   27.2690   34.8840 C.3   122  ASN122      0.1169
     15  CG        31.4630   28.1000   35.9660 C.2   122  ASN122      0.2627
     16  OD1       31.0690   29.2460   36.1950 O.2   122  ASN122     -0.2716
     17  ND2       32.4400   27.5260   36.6520 N.am  122  ASN122     -0.0877
     18  N         28.6040   25.5430   33.3620 N.am  123  GLY123     -0.1942
     19  CA        27.9730   25.3050   32.0720 C.3   123  GLY123      0.2014
     20  C         28.2990   23.9160   31.5860 C.2   123  GLY123      0.2639
     21  O         28.0090   22.9380   32.2750 O.2   123  GLY123     -0.2714
     22  N         28.9260   23.8430   30.4120 N.am  124  GLY124     -0.1939
     23  CA        29.1220   22.5840   29.6820 C.3   124  GLY124      0.2014
     24  C         29.8730   21.4830   30.4040 C.2   124  GLY124      0.2638
     25  O         29.4690   20.3220   30.3630 O.2   124  GLY124     -0.2714
     26  N         30.9820   21.8380   31.0510 N.am  125  LEU125     -0.1977
     27  CA        31.8020   20.8590   31.7670 C.3   125  LEU125      0.1596
     28  C         31.0470   20.2530   32.9510 C.2   125  LEU125      0.2287
     29  O         31.0690   19.0350   33.1450 O.2   125  LEU125     -0.2864
     30  CB        33.1440   21.4770   32.2080 C.3   125  LEU125      0.0297
     31  CG        34.1110   20.6300   33.0510 C.3   125  LEU125      0.0022
     32  CD1       35.5670   20.9150   32.6890 C.3   125  LEU125      0.0001
     33  CD2       33.8830   20.8800   34.5410 C.3   125  LEU125      0.0001
     34  N         28.1230   18.0900   31.6690 N.3   128  LEU128     -0.1245
     35  CA        28.6400   16.8200   31.1580 C.3   128  LEU128      0.1561
     36  C         28.8130   15.8040   32.2830 C.2   128  LEU128      0.2260
     37  O         28.4230   14.6500   32.1370 O.2   128  LEU128     -0.2867
     38  CB        29.9600   17.0040   30.4010 C.3   128  LEU128      0.0270
     39  CG        30.4650   15.7490   29.6610 C.3   128  LEU128      0.0019
     40  CD1       29.7220   15.5700   28.3330 C.3   128  LEU128      0.0001
     41  CD2       31.9700   15.8120   29.4300 C.3   128  LEU128      0.0001
     42  N         33.9340   28.9800   41.8940 N.3   263  TYR263     -0.1241
     43  CA        34.5380   29.9730   41.0040 C.3   263  TYR263      0.1605
     44  C         33.7380   30.0450   39.6990 C.2   263  TYR263      0.2264
     45  O         33.5660   29.0280   39.0240 O.2   263  TYR263     -0.2867
     46  CB        36.0080   29.6500   40.7460 C.3   263  TYR263      0.0534
     47  CG        36.9150   30.1710   41.8360 C.ar  263  TYR263     -0.0201
     48  CD1       37.1470   29.4300   42.9980 C.ar  263  TYR263     -0.0009
     49  CD2       37.5310   31.4140   41.7110 C.ar  263  TYR263     -0.0009
     50  CE1       37.9880   29.9180   44.0060 C.ar  263  TYR263      0.0417
     51  CE2       38.3660   31.9100   42.7090 C.ar  263  TYR263      0.0417
     52  CZ        38.5880   31.1590   43.8510 C.ar  263  TYR263      0.1957
     53  OH        39.4130   31.6620   44.8300 O.3   263  TYR263     -0.2866
     54  N         34.1210   31.1740   36.6620 N.3   265  ASN265     -0.1225
     55  CA        34.7980   31.3230   35.3690 C.3   265  ASN265      0.1785
     56  C         34.5730   30.1520   34.4120 C.2   265  ASN265      0.2597
     57  O         34.8670   28.9940   34.7350 O.2   265  ASN265     -0.2718
     58  CB        36.2960   31.5530   35.5660 C.3   265  ASN265      0.1169
     59  CG        36.5890   32.7080   36.4990 C.2   265  ASN265      0.2627
     60  OD1       35.9100   33.7380   36.4710 O.2   265  ASN265     -0.2716
     61  ND2       37.6050   32.5420   37.3410 N.am  265  ASN265     -0.0877
     62  N         34.0460   30.4620   33.2350 N.am  266  ASP266     -0.1960
     63  CA        33.8630   29.4680   32.1860 C.3   266  ASP266      0.1840
     64  C         35.0060   29.6320   31.1850 C.2   266  ASP266      0.2622
     65  O         35.1500   30.6920   30.5680 O.2   266  ASP266     -0.2715
     66  CB        32.5070   29.6690   31.5070 C.3   266  ASP266      0.1450
     67  CG        32.0760   28.4700   30.6860 C.2   266  ASP266      0.3671
     68  OD1       31.7240   27.4280   31.2820 O.co2 266  ASP266     -0.2456
     69  OD2       32.0680   28.5780   29.4380 O.co2 266  ASP266     -0.2456
     70  N         35.8280   28.5900   31.0460 N.am  267  ASN267     -0.1958
     71  CA        36.9870   28.6150   30.1430 C.3   267  ASN267      0.1819
     72  C         37.9600   29.7740   30.4110 C.2   267  ASN267      0.2621
     73  O         38.2480   30.5680   29.5130 O.2   267  ASN267     -0.2715
     74  CB        36.5320   28.6270   28.6750 C.3   267  ASN267      0.1195
     75  CG        36.0790   27.2660   28.1940 C.2   267  ASN267      0.2630
     76  OD1       36.9000   26.4140   27.8590 O.2   267  ASN267     -0.2716
     77  ND2       34.7690   27.0580   28.1460 N.am  267  ASN267     -0.0877
     78  N         38.4490   29.8620   31.6510 N.am  268  PHE268     -0.1960
     79  CA        39.4290   30.8810   32.0590 C.3   268  PHE268      0.1771
     80  C         40.1240   30.4980   33.3710 C.2   268  PHE268      0.2619
     81  O         39.4630   30.0960   34.3350 O.2   268  PHE268     -0.2715
     82  CB        38.7700   32.2590   32.1940 C.3   268  PHE268      0.0574
     83  CG        39.7490   33.3840   32.4090 C.ar  268  PHE268     -0.0200
     84  CD1       40.4820   33.8980   31.3450 C.ar  268  PHE268     -0.0042
     85  CD2       39.9360   33.9300   33.6750 C.ar  268  PHE268     -0.0042
     86  CE1       41.3920   34.9390   31.5400 C.ar  268  PHE268     -0.0003
     87  CE2       40.8460   34.9710   33.8800 C.ar  268  PHE268     -0.0003
     88  CZ        41.5730   35.4750   32.8120 C.ar  268  PHE268     -0.0000
     89  N         41.4520   30.6350   33.4000 N.am  269  PHE269     -0.1974
     90  CA        42.2480   30.2610   34.5720 C.3   269  PHE269      0.1639
     91  C         42.6390   31.4530   35.4370 C.2   269  PHE269      0.2290
     92  O         43.2920   32.3930   34.9730 O.2   269  PHE269     -0.2864
     93  CB        43.4980   29.4600   34.1670 C.3   269  PHE269      0.0560
     94  CG        44.4650   29.2130   35.3040 C.ar  269  PHE269     -0.0200
     95  CD1       45.7440   29.7640   35.2780 C.ar  269  PHE269     -0.0042
     96  CD2       44.0980   28.4330   36.3990 C.ar  269  PHE269     -0.0042
     97  CE1       46.6450   29.5360   36.3220 C.ar  269  PHE269     -0.0003
     98  CE2       44.9910   28.2020   37.4480 C.ar  269  PHE269     -0.0003
     99  CZ        46.2640   28.7540   37.4070 C.ar  269  PHE269     -0.0000
    100  N         41.3900   28.6390   45.1240 N.3   275  ARG275     -0.1245
    101  CA        41.0770   27.6440   44.0930 C.3   275  ARG275      0.1563
    102  C         41.9990   26.4270   44.1890 C.2   275  ARG275      0.2260
    103  O         41.5550   25.2960   44.0250 O.2   275  ARG275     -0.2867
    104  CB        41.1180   28.2690   42.6960 C.3   275  ARG275      0.0307
    105  CG        41.0180   27.2710   41.5340 C.3   275  ARG275      0.0489
    106  CD        39.6480   26.6090   41.4270 C.3   275  ARG275      0.2205
    107  NE        39.5200   25.9120   40.1460 N.pl3 275  ARG275     -0.0865
    108  CZ        38.3720   25.5410   39.5840 C.cat 275  ARG275      0.5346
    109  NH1       37.2100   25.7840   40.1790 N.pl3 275  ARG275      0.1354
    110  NH2       38.3920   24.9280   38.4070 N.pl3 275  ARG275      0.1354
    111  N         39.0980   17.3030   33.2510 N.3   313  ASP313     -0.1239
    112  CA        40.0860   18.3700   33.0430 C.3   313  ASP313      0.1674
    113  C         41.2540   18.2600   34.0380 C.2   313  ASP313      0.2266
    114  O         41.4230   17.2290   34.6890 O.2   313  ASP313     -0.2867
    115  CB        39.4390   19.7640   33.0560 C.3   313  ASP313      0.1410
    116  CG        40.1030   20.7120   32.0770 C.2   313  ASP313      0.3668
    117  OD1       39.5670   20.9080   30.9680 O.co2 313  ASP313     -0.2456
    118  OD2       41.1860   21.2320   32.3960 O.co2 313  ASP313     -0.2456
    119  N         41.6410   20.0760   36.6990 N.3   315  HIS315     -0.1241
    120  CA        41.2740   20.5790   38.0290 C.3   315  HIS315      0.1621
    121  C         41.5870   19.6070   39.1810 C.2   315  HIS315      0.2264
    122  O         42.0320   20.0460   40.2390 O.2   315  HIS315     -0.2867
    123  CB        39.8220   21.0900   38.0760 C.3   315  HIS315      0.0745
    124  CG        39.4270   21.9050   36.8810 C.ar  315  HIS315      0.0817
    125  ND1       38.1470   21.9020   36.3710 N.ar  315  HIS315     -0.2268
    126  CD2       40.1490   22.7250   36.0790 C.ar  315  HIS315      0.1154
    127  CE1       38.0940   22.6930   35.3130 C.ar  315  HIS315      0.1986
    128  NE2       39.2960   23.2080   35.1170 N.ar  315  HIS315     -0.2212
    129  N         39.3000   19.3760   27.8870 N.3   351  HIS351     -0.1226
    130  CA        38.0390   20.0080   27.4870 C.3   351  HIS351      0.1752
    131  C         38.1720   21.3070   26.6860 C.2   351  HIS351      0.2596
    132  O         37.1620   21.8870   26.2990 O.2   351  HIS351     -0.2718
    133  CB        37.1630   20.2820   28.7150 C.3   351  HIS351      0.0759
    134  CG        36.6730   19.0490   29.4010 C.ar  351  HIS351      0.0818
    135  ND1       35.4900   18.4310   29.0610 N.ar  351  HIS351     -0.2268
    136  CD2       37.1970   18.3290   30.4210 C.ar  351  HIS351      0.1154
    137  CE1       35.3110   17.3760   29.8350 C.ar  351  HIS351      0.1986
    138  NE2       36.3330   17.2920   30.6690 N.ar  351  HIS351     -0.2212
    139  N         39.3960   21.7770   26.4460 N.am  352  THR352     -0.1953
    140  CA        39.5820   23.0190   25.6770 C.3   352  THR352      0.1897
    141  C         41.0240   23.2330   25.2370 C.2   352  THR352      0.2313
    142  O         41.9500   22.7230   25.8680 O.2   352  THR352     -0.2863
    143  CB        39.0610   24.2830   26.4360 C.3   352  THR352      0.1794
    144  OG1       39.1940   25.4500   25.6060 O.3   352  THR352     -0.2208
    145  CG2       39.8050   24.4960   27.7560 C.3   352  THR352      0.0378
    146  N         42.6580   29.2550   29.4150 N.3   357  ALA357     -0.1245
    147  CA        41.9160   28.3210   30.2670 C.3   357  ALA357      0.1562
    148  C         42.8210   27.2680   30.9120 C.2   357  ALA357      0.2260
    149  O         42.4040   26.5520   31.8300 O.2   357  ALA357     -0.2867
    150  CB        40.7950   27.6500   29.4730 C.3   357  ALA357      0.0290
    151  N         45.5830   25.4780   33.1340 N.3   359  GLU359     -0.1245
    152  CA        46.0840   25.6670   34.4900 C.3   359  GLU359      0.1567
    153  C         47.5990   25.5870   34.5380 C.2   359  GLU359      0.2260
    154  O         48.1850   24.5430   34.2460 O.2   359  GLU359     -0.2867
    155  CB        45.4870   24.6390   35.4510 C.3   359  GLU359      0.0388
    156  CG        43.9920   24.7830   35.6700 C.3   359  GLU359      0.1160
    157  CD        43.5340   24.0240   36.8890 C.2   359  GLU359      0.3649
    158  OE1       43.5990   22.7760   36.8770 O.co2 359  GLU359     -0.2457
    159  OE2       43.1260   24.6840   37.8650 O.co2 359  GLU359     -0.2457
    160  N         37.1630   15.6220   23.3850 N.3   429  VAL429     -0.1245
    161  CA        35.7190   15.4690   23.6120 C.3   429  VAL429      0.1561
    162  C         34.8720   15.5400   22.3370 C.2   429  VAL429      0.2260
    163  O         33.6400   15.5140   22.3980 O.2   429  VAL429     -0.2867
    164  CB        35.2070   16.4550   24.7010 C.3   429  VAL429      0.0252
    165  CG1       35.7680   16.0670   26.0680 C.3   429  VAL429      0.0019
    166  CG2       35.5770   17.9020   24.3660 C.3   429  VAL429      0.0019
    167  N         31.4720   13.7870   23.1440 N.3   458  ASN458     -0.1240
    168  CA        30.5030   14.0740   24.1960 C.3   458  ASN458      0.1653
    169  C         29.0850   13.6040   23.8530 C.2   458  ASN458      0.2266
    170  O         28.7620   13.3150   22.6980 O.2   458  ASN458     -0.2867
    171  CB        30.4880   15.5790   24.5000 C.3   458  ASN458      0.1155
    172  CG        31.6280   16.0160   25.4320 C.2   458  ASN458      0.2627
    173  OD1       31.8600   17.2190   25.6220 O.2   458  ASN458     -0.2716
    174  ND2       32.3190   15.0570   26.0200 N.am  458  ASN458     -0.0877
    175  N         34.6530   33.8180   22.1200 N.3   547  TYR547     -0.1227
    176  CA        34.8050   32.7130   21.1640 C.3   547  TYR547      0.1736
    177  C         33.4760   32.1470   20.6720 C.2   547  TYR547      0.2595
    178  O         33.4000   31.6380   19.5550 O.2   547  TYR547     -0.2718
    179  CB        35.7590   31.6190   21.6670 C.3   547  TYR547      0.0548
    180  CG        35.1670   30.5060   22.5030 C.ar  547  TYR547     -0.0200
    181  CD1       34.5860   29.3850   21.9010 C.ar  547  TYR547     -0.0009
    182  CD2       35.2460   30.5380   23.8950 C.ar  547  TYR547     -0.0009
    183  CE1       34.0690   28.3470   22.6660 C.ar  547  TYR547      0.0417
    184  CE2       34.7290   29.5020   24.6710 C.ar  547  TYR547      0.0417
    185  CZ        34.1440   28.4110   24.0520 C.ar  547  TYR547      0.1957
    186  OH        33.6350   27.3750   24.8150 O.3   547  TYR547     -0.2866
    187  N         32.4400   32.2530   21.4990 N.am  548  LYS548     -0.1980
    188  CA        31.1080   31.7560   21.1510 C.3   548  LYS548      0.1596
    189  C         30.3680   32.7060   20.1980 C.2   548  LYS548      0.2287
    190  O         29.3420   32.3470   19.6120 O.2   548  LYS548     -0.2864
    191  CB        30.2920   31.4860   22.4200 C.3   548  LYS548      0.0298
    192  CG        30.7930   30.2670   23.2030 C.3   548  LYS548      0.0038
    193  CD        30.1720   30.1820   24.5880 C.3   548  LYS548      0.0206
    194  CE        30.6530   28.9620   25.3670 C.3   548  LYS548      0.1093
    195  NZ        30.0850   27.6690   24.8220 N.3   548  LYS548     -0.1314
    196  N         37.5520   26.4220   18.1150 N.3   645  THR645     -0.1203
    197  CA        37.5120   27.0060   19.4630 C.3   645  THR645      0.1994
    198  C         36.5840   26.2970   20.4530 C.2   645  THR645      0.2618
    199  O         36.9020   26.2120   21.6390 O.2   645  THR645     -0.2717
    200  CB        37.1770   28.5220   19.4480 C.3   645  THR645      0.1784
    201  OG1       35.8650   28.7310   18.9050 O.3   645  THR645     -0.2211
    202  CG2       38.2020   29.3030   18.6330 C.3   645  THR645      0.0376
    203  N         35.4370   25.8130   19.9780 N.am  646  GLU646     -0.1965
    204  CA        34.5220   25.0520   20.8280 C.3   646  GLU646      0.1733
    205  C         34.9120   23.5820   20.7520 C.2   646  GLU646      0.2616
    206  O         34.6890   22.9420   19.7310 O.2   646  GLU646     -0.2715
    207  CB        33.0690   25.2410   20.3710 C.3   646  GLU646      0.0429
    208  CG        32.0200   24.7210   21.3530 C.3   646  GLU646      0.1163
    209  CD        31.8410   25.6360   22.5480 C.2   646  GLU646      0.3649
    210  OE1       32.4850   25.3760   23.5860 O.co2 646  GLU646     -0.2457
    211  OE2       31.0770   26.6240   22.4500 O.co2 646  GLU646     -0.2457
    212  N         35.5010   23.0570   21.8280 N.am  647  ALA647     -0.1963
    213  CA        36.0050   21.6780   21.8460 C.3   647  ALA647      0.1728
    214  C         34.9460   20.6710   21.3920 C.2   647  ALA647      0.2617
    215  O         35.2150   19.8250   20.5370 O.2   647  ALA647     -0.2715
    216  CB        36.5450   21.3160   23.2250 C.3   647  ALA647      0.0334
    217  N         33.7390   20.7820   21.9440 N.am  648  SER648     -0.1936
    218  CA        32.6340   19.9260   21.5290 C.3   648  SER648      0.2055
    219  C         31.3430   20.7160   21.4420 C.2   648  SER648      0.2644
    220  O         30.7600   20.8600   20.3630 O.2   648  SER648     -0.2714
    221  CB        32.4610   18.7640   22.5130 C.3   648  SER648      0.2130
    222  OG        31.2840   18.0280   22.2310 O.3   648  SER648     -0.2179
    223  N         30.9180   21.2530   22.5840 N.am  649  GLY649     -0.1939
    224  CA        29.5620   21.7660   22.7300 C.3   649  GLY649      0.2014
    225  C         28.6720   20.6010   23.1160 C.2   649  GLY649      0.2639
    226  O         28.9330   19.4510   22.7320 O.2   649  GLY649     -0.2714
    227  N         27.6480   20.8820   23.9150 N.am  650  THR650     -0.1950
    228  CA        26.6430   19.8800   24.2700 C.3   650  THR650      0.1897
    229  C         25.2450   20.4630   24.1090 C.2   650  THR650      0.2313
    230  O         24.2890   19.7300   23.8240 O.2   650  THR650     -0.2863
    231  CB        26.8220   19.3360   25.6980 C.3   650  THR650      0.1794
    232  OG1       26.9020   20.4300   26.6150 O.3   650  THR650     -0.2208
    233  CG2       28.0830   18.4830   25.8010 C.3   650  THR650      0.0378
@<TRIPOS>BOND
     1   196   197    1
     2   202   200    1
     3   201   200    1
     4   200   197    1
     5   197   198    1
     6   178   177    2
     7   190   189    2
     8   206   205    2
     9   203   198   am
    10   203   204    1
    11   189   188    1
    12   220   219    2
    13   207   204    1
    14   207   208    1
    15   198   199    2
    16   215   214    2
    17   177   176    1
    18   177   187   am
    19   205   204    1
    20   205   212   am
    21   188   187    1
    22   188   191    1
    23   176   179    1
    24   176   175    1
    25   208   209    1
    26   214   213    1
    27   214   217   am
    28   219   218    1
    29   219   223   am
    30   218   217    1
    31   218   221    1
    32   179   180    1
    33   212   213    1
    34   213   216    1
    35   181   180   ar
    36   181   183   ar
    37   222   221    1
    38   162   163    2
    39   162   161    1
    40   191   192    1
    41   211   209   ar
    42   180   182   ar
    43   209   210   ar
    44   223   224    1
    45   183   185   ar
    46   170   169    2
    47   224   225    1
    48   226   225    2
    49   225   227   am
    50   167   168    1
    51   192   193    1
    52   160   161    1
    53   161   164    1
    54   230   229    2
    55   169   168    1
    56   182   184   ar
    57   227   228    1
    58   185   184   ar
    59   185   186    1
    60   229   228    1
    61   168   171    1
    62   228   231    1
    63   166   164    1
    64   171   172    1
    65   193   194    1
    66   164   165    1
    67   195   194    1
    68   141   140    1
    69   141   142    2
    70   172   173    2
    71   172   174   am
    72   144   143    1
    73   140   143    1
    74   140   139    1
    75   231   233    1
    76   231   232    1
    77   132   131    2
    78   143   145    1
    79   139   131   am
    80   131   130    1
    81   130   129    1
    82   130   133    1
    83    76    75    2
    84    77    75   am
    85    75    74    1
    86    40    39    1
    87    74    71    1
    88   133   134    1
    89   135   134   ar
    90   135   137   ar
    91   134   136   ar
    92   146   147    1
    93    41    39    1
    94    69    67   ar
    95   150   147    1
    96    73    72    2
    97    39    38    1
    98    23    24    1
    99    23    22    1
   100   137   138   ar
   101    71    72    1
   102    71    70    1
   103   147   148    1
   104    25    24    2
   105    38    35    1
   106    24    26   am
   107    72    78   am
   108    22    20   am
   109   136   138   ar
   110    65    64    2
   111    67    68   ar
   112    67    66    1
   113   148   149    2
   114   117   116   ar
   115    70    64   am
   116    26    27    1
   117    35    34    1
   118    35    36    1
   119    64    63    1
   120    84    86   ar
   121    84    83   ar
   122    66    63    1
   123    86    88   ar
   124    20    19    1
   125    20    21    2
   126    78    79    1
   127    27    30    1
   128    27    28    1
   129    79    82    1
   130    79    80    1
   131    19    18    1
   132   116   118   ar
   133   116   115    1
   134    37    36    2
   135    63    62    1
   136    82    83    1
   137    30    31    1
   138    83    85   ar
   139    32    31    1
   140    88    87   ar
   141    28    29    2
   142   112   115    1
   143   112   111    1
   144   112   113    1
   145    31    33    1
   146   151   152    1
   147    62    56   am
   148    18    12   am
   149    80    89   am
   150    80    81    2
   151    89    90    1
   152    13    12    2
   153    85    87   ar
   154    12    11    1
   155   113   114    2
   156    93    90    1
   157    93    94    1
   158   154   153    2
   159    56    57    2
   160    56    55    1
   161   152   153    1
   162   152   155    1
   163    90    91    1
   164    14    11    1
   165    14    15    1
   166    92    91    2
   167   128   127   ar
   168   128   126   ar
   169    11    10    1
   170    95    94   ar
   171    95    97   ar
   172    94    96   ar
   173   127   125   ar
   174    55    58    1
   175    55    54    1
   176   155   156    1
   177    58    59    1
   178   156   157    1
   179     9     7   ar
   180    15    16    2
   181    15    17   am
   182   126   124   ar
   183    97    99   ar
   184   125   124   ar
   185    96    98   ar
   186    60    59    2
   187    59    61   am
   188     8     7   ar
   189   119   120    1
   190     7     6    1
   191   158   157   ar
   192   124   123    1
   193   157   159   ar
   194    99    98   ar
   195     5     6    1
   196     5     2    1
   197     4     3    2
   198   120   123    1
   199   120   121    1
   200   110   108    1
   201     3     2    1
   202     2     1    1
   203    45    44    2
   204   121   122    2
   205   108   107    2
   206   108   109    1
   207    44    43    1
   208   107   106    1
   209    46    43    1
   210    46    47    1
   211    43    42    1
   212   106   105    1
   213   105   104    1
   214    49    47   ar
   215    49    51   ar
   216    47    48   ar
   217   104   101    1
   218    51    52   ar
   219    48    50   ar
   220    52    50   ar
   221    52    53    1
   222   103   102    2
   223   101   102    1
   224   101   100    1
