@<TRIPOS>MOLECULE
tmp/2qrnC01.pdb
 206 194 0 0 0
SMALL
GASTEIGER

@<TRIPOS>ATOM
      1  N         24.9750   53.5410   33.7620 N.3    11  ILE11      -0.1231
      2  CA        24.7760   53.8760   32.3620 C.3    11  ILE11       0.1692
      3  C         25.8450   54.8700   31.9610 C.2    11  ILE11       0.2591
      4  O         26.0040   55.9110   32.6000 O.2    11  ILE11      -0.2718
      5  CB        23.4230   54.5460   32.1180 C.3    11  ILE11       0.0266
      6  CG1       22.2890   53.6040   32.4880 C.3    11  ILE11       0.0019
      7  CG2       23.3100   54.9540   30.6630 C.3    11  ILE11       0.0020
      8  CD1       20.9290   54.2540   32.3780 C.3    11  ILE11       0.0001
      9  N         26.5800   54.5430   30.9050 N.am   12  ALA12      -0.1980
     10  CA        27.6230   55.4250   30.4060 C.3    12  ALA12       0.1597
     11  C         28.8150   55.5550   31.3480 C.2    12  ALA12       0.2287
     12  O         29.5710   56.5290   31.2900 O.2    12  ALA12      -0.2864
     13  CB        27.0400   56.7900   30.1240 C.3    12  ALA12       0.0319
     14  N         32.0100   50.8320   30.3000 N.3    15  LYS15      -0.1245
     15  CA        32.4320   49.4310   30.1550 C.3    15  LYS15       0.1561
     16  C         33.0150   49.2440   28.7480 C.2    15  LYS15       0.2260
     17  O         34.1720   48.8730   28.5740 O.2    15  LYS15      -0.2867
     18  CB        31.2580   48.4520   30.3040 C.3    15  LYS15       0.0271
     19  CG        30.3820   48.5890   31.5310 C.3    15  LYS15       0.0035
     20  CD        29.5460   49.8440   31.4490 C.3    15  LYS15       0.0206
     21  CE        28.1580   49.6290   32.0210 C.3    15  LYS15       0.1093
     22  NZ        27.3160   48.8590   31.0800 N.3    15  LYS15      -0.1314
     23  N         26.3890   44.4690   25.0810 N.3    34  GLU34      -0.1245
     24  CA        24.9510   44.4390   25.2540 C.3    34  GLU34       0.1567
     25  C         24.4230   44.6440   23.8600 C.2    34  GLU34       0.2260
     26  O         24.8960   45.5170   23.1460 O.2    34  GLU34      -0.2867
     27  CB        24.4780   45.6010   26.1070 C.3    34  GLU34       0.0388
     28  CG        24.5500   45.3670   27.5810 C.3    34  GLU34       0.1160
     29  CD        23.8150   46.4340   28.3520 C.2    34  GLU34       0.3649
     30  OE1       23.5580   46.2210   29.5530 O.co2  34  GLU34      -0.2457
     31  OE2       23.4950   47.4850   27.7540 O.co2  34  GLU34      -0.2457
     32  N         22.5590   46.4220   22.5110 N.3    36  VAL36      -0.1245
     33  CA        21.8060   47.6730   22.4930 C.3    36  VAL36       0.1561
     34  C         21.4360   48.0510   21.0680 C.2    36  VAL36       0.2260
     35  O         20.5510   48.8750   20.8450 O.2    36  VAL36      -0.2867
     36  CB        22.6070   48.8330   23.1700 C.3    36  VAL36       0.0252
     37  CG1       23.9630   48.9810   22.5230 C.3    36  VAL36       0.0019
     38  CG2       21.8330   50.1330   23.0780 C.3    36  VAL36       0.0019
     39  N         18.0790   46.6420   20.2580 N.3    39  TRP39      -0.1241
     40  CA        17.0490   47.2140   21.1230 C.3    39  TRP39       0.1605
     41  C         16.4950   48.4930   20.5070 C.2    39  TRP39       0.2264
     42  O         15.3620   48.8800   20.7800 O.2    39  TRP39      -0.2867
     43  CB        17.6060   47.5390   22.5170 C.3    39  TRP39       0.0550
     44  CG        18.0480   46.3540   23.2890 C.ar   39  TRP39       0.0003
     45  CD1       17.8240   45.0570   22.9750 C.ar   39  TRP39       0.0946
     46  CD2       18.8230   46.3500   24.4960 C.ar   39  TRP39       0.0152
     47  NE1       18.4170   44.2400   23.9020 N.ar   39  TRP39      -0.2442
     48  CE2       19.0380   45.0110   24.8480 C.ar   39  TRP39       0.0810
     49  CE3       19.3560   47.3470   25.3050 C.ar   39  TRP39       0.0012
     50  CZ2       19.7660   44.6380   25.9720 C.ar   39  TRP39       0.0191
     51  CZ3       20.0790   46.9750   26.4170 C.ar   39  TRP39       0.0001
     52  CH2       20.2780   45.6290   26.7400 C.ar   39  TRP39       0.0015
     53  N         13.6780   50.5180   22.9850 N.3    50  LEU50      -0.1245
     54  CA        14.3830   51.2270   24.0540 C.3    50  LEU50       0.1561
     55  C         13.6980   52.5630   24.2670 C.2    50  LEU50       0.2260
     56  O         13.3750   52.9450   25.3970 O.2    50  LEU50      -0.2867
     57  CB        15.8550   51.4730   23.7100 C.3    50  LEU50       0.0270
     58  CG        16.6320   52.4020   24.6760 C.3    50  LEU50       0.0019
     59  CD1       16.6890   51.8250   26.0760 C.3    50  LEU50       0.0001
     60  CD2       18.0480   52.6150   24.1600 C.3    50  LEU50       0.0001
     61  N         10.2860   52.4350   25.9890 N.3    53  MET53      -0.1230
     62  CA        10.3480   52.3180   27.4410 C.3    53  MET53       0.1702
     63  C         10.5640   53.6550   28.1060 C.2    53  MET53       0.2592
     64  O         10.0270   53.9310   29.1830 O.2    53  MET53      -0.2718
     65  CB        11.4830   51.4160   27.8870 C.3    53  MET53       0.0401
     66  CG        11.6380   51.4500   29.4010 C.3    53  MET53       0.0596
     67  SD        13.1090   50.6570   29.9530 S.3    53  MET53      -0.1393
     68  CE        14.2590   52.0100   29.7930 C.3    53  MET53       0.0692
     69  N         11.3890   54.4750   27.4690 N.am   54  TYR54      -0.1976
     70  CA        11.6920   55.7840   27.9970 C.3    54  TYR54       0.1639
     71  C         10.5260   56.7460   27.8880 C.2    54  TYR54       0.2290
     72  O         10.2070   57.4550   28.8390 O.2    54  TYR54      -0.2864
     73  CB        12.9310   56.3130   27.2990 C.3    54  TYR54       0.0560
     74  CG        14.1780   55.8150   27.9750 C.ar   54  TYR54      -0.0198
     75  CD1       15.3110   55.4760   27.2560 C.ar   54  TYR54      -0.0009
     76  CD2       14.2230   55.6960   29.3570 C.ar   54  TYR54      -0.0009
     77  CE1       16.4570   55.0280   27.9150 C.ar   54  TYR54       0.0417
     78  CE2       15.3450   55.2600   30.0080 C.ar   54  TYR54       0.0417
     79  CZ        16.4490   54.9290   29.2920 C.ar   54  TYR54       0.1957
     80  OH        17.5320   54.4940   29.9920 O.3    54  TYR54      -0.2866
     81  N         10.1180   45.6330   27.3560 N.3    64  PHE64      -0.1227
     82  CA        11.5360   45.8960   27.1570 C.3    64  PHE64       0.1736
     83  C         12.4270   44.9930   28.0160 C.2    64  PHE64       0.2595
     84  O         13.1780   44.1700   27.4900 O.2    64  PHE64      -0.2718
     85  CB        11.8630   47.3500   27.4940 C.3    64  PHE64       0.0547
     86  CG        13.3240   47.6810   27.3650 C.ar   64  PHE64      -0.0202
     87  CD1       13.8580   48.0530   26.1390 C.ar   64  PHE64      -0.0042
     88  CD2       14.1800   47.5320   28.4370 C.ar   64  PHE64      -0.0042
     89  CE1       15.2280   48.2630   25.9830 C.ar   64  PHE64      -0.0003
     90  CE2       15.5360   47.7370   28.2900 C.ar   64  PHE64      -0.0003
     91  CZ        16.0630   48.1010   27.0560 C.ar   64  PHE64      -0.0000
     92  N         12.3440   45.1650   29.3380 N.am   65  GLN65      -0.1979
     93  CA        13.1500   44.3960   30.2900 C.3    65  GLN65       0.1601
     94  C         13.2280   42.9070   30.0000 C.2    65  GLN65       0.2287
     95  O         14.2260   42.2600   30.3320 O.2    65  GLN65      -0.2864
     96  CB        12.6400   44.6160   31.7110 C.3    65  GLN65       0.0394
     97  CG        13.2660   45.8100   32.4040 C.3    65  GLN65       0.0908
     98  CD        14.7850   45.7650   32.3710 C.2    65  GLN65       0.2608
     99  OE1       15.3990   44.6980   32.5180 O.2    65  GLN65      -0.2717
    100  NE2       15.4030   46.9270   32.1790 N.am   65  GLN65      -0.0878
    101  N         15.1510   42.5120   26.5560 N.3    68  ALA68      -0.1245
    102  CA        16.5210   42.8540   26.8910 C.3    68  ALA68       0.1562
    103  C         17.2840   41.6810   27.4880 C.2    68  ALA68       0.2260
    104  O         18.3850   41.3610   27.0410 O.2    68  ALA68      -0.2867
    105  CB        16.5340   44.0210   27.8410 C.3    68  ALA68       0.0290
    106  N         20.2330   39.2540   25.6670 N.3    72  ARG72      -0.1245
    107  CA        21.5600   39.1190   26.2700 C.3    72  ARG72       0.1563
    108  C         21.9640   37.6590   26.3420 C.2    72  ARG72       0.2260
    109  O         23.0490   37.2870   25.9030 O.2    72  ARG72      -0.2867
    110  CB        21.6070   39.7170   27.6770 C.3    72  ARG72       0.0307
    111  CG        23.0240   39.8060   28.2700 C.3    72  ARG72       0.0489
    112  CD        22.9760   40.1520   29.7530 C.3    72  ARG72       0.2205
    113  NE        22.2390   41.3860   30.0000 N.pl3  72  ARG72      -0.0865
    114  CZ        22.6910   42.5840   29.6620 C.cat  72  ARG72       0.5346
    115  NH1       23.8790   42.6840   29.0750 N.pl3  72  ARG72       0.1354
    116  NH2       21.9530   43.6670   29.8890 N.pl3  72  ARG72       0.1354
    117  N         29.3610   42.5740   28.9140 N.3    95  GLU95      -0.1231
    118  CA        29.0010   43.9450   29.2360 C.3    95  GLU95       0.1699
    119  C         27.7010   43.6680   29.9930 C.2    95  GLU95       0.2592
    120  O         26.7020   43.3010   29.3740 O.2    95  GLU95      -0.2718
    121  CB        28.7410   44.7600   27.9600 C.3    95  GLU95       0.0402
    122  CG        28.6470   46.2770   28.1720 C.3    95  GLU95       0.1161
    123  CD        28.4180   47.0610   26.8760 C.2    95  GLU95       0.3649
    124  OE1       28.4010   48.3140   26.9120 O.co2  95  GLU95      -0.2457
    125  OE2       28.2500   46.4320   25.8110 O.co2  95  GLU95      -0.2457
    126  N         27.7370   43.7870   31.3250 N.am   96  ARG96      -0.1980
    127  CA        26.5760   43.5270   32.1850 C.3    96  ARG96       0.1597
    128  C         26.2360   42.0570   32.2000 C.2    96  ARG96       0.2287
    129  O         26.5330   41.3420   31.2530 O.2    96  ARG96      -0.2864
    130  CB        25.3340   44.2660   31.6980 C.3    96  ARG96       0.0334
    131  CG        25.3110   45.7260   31.9980 C.3    96  ARG96       0.0492
    132  CD        24.4310   46.0770   33.1790 C.3    96  ARG96       0.2205
    133  NE        24.4480   47.5190   33.3740 N.pl3  96  ARG96      -0.0865
    134  CZ        24.0940   48.3870   32.4300 C.cat  96  ARG96       0.5346
    135  NH1       23.6870   47.9450   31.2530 N.pl3  96  ARG96       0.1354
    136  NH2       24.1990   49.6940   32.6320 N.pl3  96  ARG96       0.1354
    137  N         20.4640   42.9750   35.1890 N.3   101  ASP101     -0.1239
    138  CA        19.2420   43.1360   34.4030 C.3   101  ASP101      0.1674
    139  C         18.0360   43.1310   35.3350 C.2   101  ASP101      0.2266
    140  O         17.2050   44.0350   35.3190 O.2   101  ASP101     -0.2867
    141  CB        19.0750   41.9680   33.4300 C.3   101  ASP101      0.1410
    142  CG        19.7040   42.2260   32.0870 C.2   101  ASP101      0.3668
    143  OD1       20.8730   42.6470   32.0360 O.co2 101  ASP101     -0.2456
    144  OD2       19.0260   41.9910   31.0740 O.co2 101  ASP101     -0.2456
    145  N         18.2100   47.1430   37.1520 N.3   105  PHE105     -0.1241
    146  CA        17.2680   47.8760   36.3090 C.3   105  PHE105      0.1605
    147  C         15.8200   47.5160   36.4160 C.2   105  PHE105      0.2264
    148  O         14.9980   48.3930   36.6520 O.2   105  PHE105     -0.2867
    149  CB        17.6780   47.7850   34.8470 C.3   105  PHE105      0.0534
    150  CG        18.9850   48.4510   34.5490 C.ar  105  PHE105     -0.0203
    151  CD1       20.1910   47.7920   34.7900 C.ar  105  PHE105     -0.0042
    152  CD2       19.0130   49.7540   34.0680 C.ar  105  PHE105     -0.0042
    153  CE1       21.4020   48.4210   34.5580 C.ar  105  PHE105     -0.0003
    154  CE2       20.2170   50.3970   33.8330 C.ar  105  PHE105     -0.0003
    155  CZ        21.4180   49.7300   34.0790 C.ar  105  PHE105     -0.0000
    156  N         12.8090   49.4890   38.3220 N.3   109  LEU109     -0.1245
    157  CA        11.6840   49.9780   37.5470 C.3   109  LEU109      0.1561
    158  C         10.3960   49.6170   38.2420 C.2   109  LEU109      0.2260
    159  O          9.4300   50.3700   38.2000 O.2   109  LEU109     -0.2867
    160  CB        11.7040   49.3980   36.1320 C.3   109  LEU109      0.0270
    161  CG        12.5020   50.2140   35.1130 C.3   109  LEU109      0.0019
    162  CD1       12.5910   49.4800   33.7820 C.3   109  LEU109      0.0001
    163  CD2       11.8200   51.5490   34.9430 C.3   109  LEU109      0.0001
    164  N         28.2530   60.9150   24.9240 N.3   160  ARG160     -0.1245
    165  CA        27.9820   59.7870   24.0220 C.3   160  ARG160      0.1563
    166  C         27.0340   60.1320   22.8760 C.2   160  ARG160      0.2260
    167  O         27.4390   60.1130   21.7260 O.2   160  ARG160     -0.2867
    168  CB        27.4210   58.6080   24.8230 C.3   160  ARG160      0.0307
    169  CG        26.5320   57.6710   24.0480 C.3   160  ARG160      0.0489
    170  CD        25.6490   56.9050   24.9960 C.3   160  ARG160      0.2205
    171  NE        26.2670   55.6660   25.4540 N.pl3 160  ARG160     -0.0865
    172  CZ        25.8540   54.9760   26.5140 C.cat 160  ARG160      0.5346
    173  NH1       24.8330   55.4090   27.2330 N.pl3 160  ARG160      0.1354
    174  NH2       26.4390   53.8360   26.8410 N.pl3 160  ARG160      0.1354
    175  N         23.2290   58.9880   21.8680 N.3   162  ARG162     -0.1245
    176  CA        21.9130   58.3380   21.9180 C.3   162  ARG162      0.1563
    177  C         20.7560   59.2650   22.2860 C.2   162  ARG162      0.2260
    178  O         20.5250   59.5610   23.4520 O.2   162  ARG162     -0.2867
    179  CB        21.9430   57.1660   22.8950 C.3   162  ARG162      0.0307
    180  CG        22.8080   56.0070   22.4670 C.3   162  ARG162      0.0489
    181  CD        22.7810   54.9330   23.5230 C.3   162  ARG162      0.2205
    182  NE        23.8170   53.9260   23.3380 N.pl3 162  ARG162     -0.0865
    183  CZ        24.2520   53.1370   24.3160 C.cat 162  ARG162      0.5346
    184  NH1       23.7360   53.2490   25.5390 N.pl3 162  ARG162      0.1354
    185  NH2       25.2050   52.2420   24.0770 N.pl3 162  ARG162      0.1354
    186  N         18.3800   58.4630   25.5630 N.3   165  GLU165     -0.1245
    187  CA        18.7720   58.6800   26.9380 C.3   165  GLU165      0.1567
    188  C         18.9220   60.1390   27.3210 C.2   165  GLU165      0.2260
    189  O         19.2130   60.4590   28.4720 O.2   165  GLU165     -0.2867
    190  CB        20.0790   57.9430   27.1790 C.3   165  GLU165      0.0388
    191  CG        20.1240   56.6130   26.4710 C.3   165  GLU165      0.1160
    192  CD        21.4700   55.9570   26.5670 C.2   165  GLU165      0.3649
    193  OE1       22.4810   56.6760   26.4620 O.co2 165  GLU165     -0.2457
    194  OE2       21.5260   54.7260   26.7360 O.co2 165  GLU165     -0.2457
    195  N         17.1810   59.2800   38.3260 N.3   172  TYR172     -0.1241
    196  CA        17.2160   57.9250   37.7730 C.3   172  TYR172      0.1605
    197  C         18.6020   57.2980   37.9210 C.2   172  TYR172      0.2264
    198  O         18.7430   56.1800   38.4260 O.2   172  TYR172     -0.2867
    199  CB        16.8100   57.9380   36.2940 C.3   172  TYR172      0.0534
    200  CG        16.5650   56.5630   35.6860 C.ar  172  TYR172     -0.0201
    201  CD1       15.6050   55.7060   36.2110 C.ar  172  TYR172     -0.0009
    202  CD2       17.2780   56.1350   34.5740 C.ar  172  TYR172     -0.0009
    203  CE1       15.3630   54.4570   35.6450 C.ar  172  TYR172      0.0417
    204  CE2       17.0440   54.8900   33.9990 C.ar  172  TYR172      0.0417
    205  CZ        16.0860   54.0540   34.5370 C.ar  172  TYR172      0.1957
    206  OH        15.8700   52.8100   33.9750 O.3   172  TYR172     -0.2866
@<TRIPOS>BOND
     1    39    40    1
     2    41    42    2
     3    41    40    1
     4    35    34    2
     5    34    33    1
     6    40    43    1
     7   167   166    2
     8   175   176    1
     9   176   177    1
    10   176   179    1
    11   177   178    2
    12   180   179    1
    13   180   181    1
    14    33    32    1
    15    33    36    1
    16    43    44    1
    17    37    36    1
    18   166   165    1
    19    45    44   ar
    20    45    47   ar
    21    53    54    1
    22    38    36    1
    23    26    25    2
    24    44    46   ar
    25   182   181    1
    26   182   183    2
    27    57    54    1
    28    57    58    1
    29    25    24    1
    30    47    48   ar
    31   165   168    1
    32   165   164    1
    33   169   168    1
    34   169   170    1
    35    54    55    1
    36   185   183    1
    37    60    58    1
    38    55    56    2
    39   183   184    1
    40    46    48   ar
    41    46    49   ar
    42    58    59    1
    43    48    50   ar
    44   170   171    1
    45    23    24    1
    46    24    27    1
    47    49    51   ar
    48   171   172    2
    49   186   187    1
    50   106   107    1
    51   125   123   ar
    52   109   108    2
    53    50    52   ar
    54    89    87   ar
    55    89    91   ar
    56    61    62    1
    57    27    28    1
    58    87    86   ar
    59   107   108    1
    60   107   110    1
    61    51    52   ar
    62   193   192   ar
    63   191   192    1
    64   191   190    1
    65   172   174    1
    66   172   173    1
    67   101   102    1
    68   192   194   ar
    69   123   124   ar
    70   123   122    1
    71   102   103    1
    72   102   105    1
    73   187   190    1
    74   187   188    1
    75   104   103    2
    76    91    90   ar
    77    82    81    1
    78    82    85    1
    79    82    83    1
    80    75    77   ar
    81    75    74   ar
    82    73    74    1
    83    73    70    1
    84   188   189    2
    85    86    85    1
    86    86    88   ar
    87    62    65    1
    88    62    63    1
    89    69    70    1
    90    69    63   am
    91    84    83    2
    92    28    29    1
    93   110   111    1
    94    31    29   ar
    95    65    66    1
    96    71    70    1
    97    71    72    2
    98    77    79   ar
    99   121   122    1
   100   121   118    1
   101    74    76   ar
   102    83    92   am
   103    63    64    2
   104   111   112    1
   105    90    88   ar
   106    29    30   ar
   107    17    16    2
   108    16    15    1
   109   117   118    1
   110   115   114    1
   111   118   119    1
   112    79    80    1
   113    79    78   ar
   114    92    93    1
   115    76    78   ar
   116   120   119    2
   117    66    67    1
   118   114   116    1
   119   114   113    2
   120   112   113    1
   121    68    67    1
   122   119   126   am
   123    94    93    1
   124    94    95    2
   125    13    10    1
   126    15    14    1
   127    15    18    1
   128    93    96    1
   129    18    19    1
   130    10     9    1
   131    10    11    1
   132     7     5    1
   133     9     3   am
   134   144   142   ar
   135    22    21    1
   136   135   134    1
   137   129   128    2
   138    12    11    2
   139   126   127    1
   140    20    19    1
   141    20    21    1
   142   130   131    1
   143   130   127    1
   144    96    97    1
   145     3     2    1
   146     3     4    2
   147   131   132    1
   148   143   142   ar
   149   142   141    1
   150     5     2    1
   151     5     6    1
   152   100    98   am
   153   127   128    1
   154     2     1    1
   155    98    97    1
   156    98    99    2
   157     8     6    1
   158   134   136    1
   159   134   133    2
   160   132   133    1
   161   141   138    1
   162   162   161    1
   163   154   152   ar
   164   154   155   ar
   165   206   205    1
   166   204   205   ar
   167   204   202   ar
   168   152   150   ar
   169   155   153   ar
   170   138   137    1
   171   138   139    1
   172   205   203   ar
   173   150   151   ar
   174   150   149    1
   175   153   151   ar
   176   202   200   ar
   177   149   146    1
   178   163   161    1
   179   161   160    1
   180   140   139    2
   181   203   201   ar
   182   200   201   ar
   183   200   199    1
   184   160   157    1
   185   199   196    1
   186   146   147    1
   187   146   145    1
   188   147   148    2
   189   157   158    1
   190   157   156    1
   191   196   197    1
   192   196   195    1
   193   197   198    2
   194   159   158    2
