@<TRIPOS>MOLECULE
tmp/2qroB01.pdb
 220 208 0 0 0
SMALL
GASTEIGER

@<TRIPOS>ATOM
      1  N         28.6540   74.3350    3.8240 N.3    10  ASN10      -0.1225
      2  CA        28.9550   75.7070    4.1690 C.3    10  ASN10       0.1785
      3  C         28.7730   75.8860    5.6780 C.2    10  ASN10       0.2597
      4  O         28.7220   74.9140    6.4360 O.2    10  ASN10      -0.2718
      5  CB        28.0200   76.6480    3.4190 C.3    10  ASN10       0.1169
      6  CG        28.6340   78.0020    3.1760 C.2    10  ASN10       0.2627
      7  OD1       29.4670   78.4700    3.9460 O.2    10  ASN10      -0.2716
      8  ND2       28.2120   78.6530    2.1090 N.am   10  ASN10      -0.0877
      9  N         28.6960   77.1390    6.1070 N.am   11  ILE11      -0.1966
     10  CA        28.5090   77.4630    7.5100 C.3    11  ILE11       0.1727
     11  C         27.0250   77.3550    7.8140 C.2    11  ILE11       0.2616
     12  O         26.1920   77.8460    7.0500 O.2    11  ILE11      -0.2715
     13  CB        28.9780   78.8940    7.8050 C.3    11  ILE11       0.0290
     14  CG1       30.4950   78.9590    7.6940 C.3    11  ILE11       0.0022
     15  CG2       28.5290   79.3320    9.1870 C.3    11  ILE11       0.0023
     16  CD1       31.0450   80.3540    7.8390 C.3    11  ILE11       0.0001
     17  N         26.7000   76.7000    8.9260 N.am   12  ALA12      -0.1977
     18  CA        25.3160   76.5230    9.3480 C.3    12  ALA12       0.1597
     19  C         24.4770   75.8860    8.2610 C.2    12  ALA12       0.2287
     20  O         23.2590   76.0710    8.2180 O.2    12  ALA12      -0.2864
     21  CB        24.7110   77.8630    9.7490 C.3    12  ALA12       0.0319
     22  N         25.4300   70.1470    8.5840 N.3    15  LYS15      -0.1231
     23  CA        26.1600   68.8930    8.7600 C.3    15  LYS15       0.1693
     24  C         25.7610   68.2630   10.0870 C.2    15  LYS15       0.2592
     25  O         25.1080   67.2270   10.1130 O.2    15  LYS15      -0.2718
     26  CB        27.6710   69.1260    8.7630 C.3    15  LYS15       0.0285
     27  CG        28.2210   69.5920    7.4390 C.3    15  LYS15       0.0035
     28  CD        27.9480   71.0690    7.2200 C.3    15  LYS15       0.0206
     29  CE        29.2000   71.8620    7.4840 C.3    15  LYS15       0.1093
     30  NZ        29.7520   71.4150    8.7850 N.3    15  LYS15      -0.1314
     31  N         26.1620   68.8910   11.1890 N.am   16  SER16      -0.1952
     32  CA        25.8370   68.4050   12.5250 C.3    16  SER16       0.1924
     33  C         24.4070   67.8720   12.5340 C.2    16  SER16       0.2314
     34  O         24.1780   66.6690   12.6680 O.2    16  SER16      -0.2863
     35  CB        25.9640   69.5470   13.5290 C.3    16  SER16       0.2116
     36  OG        27.1340   70.2940   13.2890 O.3    16  SER16      -0.2180
     37  N         33.2760   68.9300   14.4300 N.3    34  GLU34      -0.1245
     38  CA        34.3070   69.9480   14.2730 C.3    34  GLU34       0.1567
     39  C         34.5930   70.4590   15.6850 C.2    34  GLU34       0.2260
     40  O         33.6630   70.7960   16.4250 O.2    34  GLU34      -0.2867
     41  CB        33.7830   71.0890   13.4090 C.3    34  GLU34       0.0388
     42  CG        34.7150   71.4960   12.2990 C.3    34  GLU34       0.1160
     43  CD        34.2310   72.7320   11.5800 C.2    34  GLU34       0.3649
     44  OE1       34.7270   73.0160   10.4670 O.co2  34  GLU34      -0.2457
     45  OE2       33.3540   73.4270   12.1350 O.co2  34  GLU34      -0.2457
     46  N         34.8460   72.9830   17.1350 N.3    36  VAL36      -0.1245
     47  CA        34.4750   74.3830   17.3100 C.3    36  VAL36       0.1561
     48  C         34.4470   74.7350   18.7820 C.2    36  VAL36       0.2260
     49  O         34.8500   75.8240   19.1800 O.2    36  VAL36      -0.2867
     50  CB        33.0790   74.6850   16.7010 C.3    36  VAL36       0.0252
     51  CG1       32.0480   73.6970   17.2290 C.3    36  VAL36       0.0019
     52  CG2       32.6680   76.1120   17.0310 C.3    36  VAL36       0.0019
     53  N         37.6180   75.9260   19.8720 N.3    39  TRP39      -0.1241
     54  CA        38.0600   77.1270   19.1520 C.3    39  TRP39       0.1605
     55  C         37.4760   78.3490   19.8540 C.2    39  TRP39       0.2264
     56  O         37.9460   79.4710   19.6780 O.2    39  TRP39      -0.2867
     57  CB        37.5800   77.1260   17.6930 C.3    39  TRP39       0.0550
     58  CG        38.0850   75.9990   16.8400 C.ar   39  TRP39       0.0003
     59  CD1       39.1930   75.2330   17.0550 C.ar   39  TRP39       0.0946
     60  CD2       37.5030   75.5270   15.6210 C.ar   39  TRP39       0.0152
     61  NE1       39.3350   74.3090   16.0470 N.ar   39  TRP39      -0.2442
     62  CE2       38.3090   74.4690   15.1530 C.ar   39  TRP39       0.0810
     63  CE3       36.3770   75.8950   14.8780 C.ar   39  TRP39       0.0012
     64  CZ2       38.0220   73.7720   13.9720 C.ar   39  TRP39       0.0191
     65  CZ3       36.0960   75.2010   13.7090 C.ar   39  TRP39       0.0001
     66  CH2       36.9150   74.1520   13.2690 C.ar   39  TRP39       0.0015
     67  N         38.0600   82.0600   17.7830 N.3    50  LEU50      -0.1245
     68  CA        37.1510   82.1000   16.6350 C.3    50  LEU50       0.1561
     69  C         36.7170   83.5410   16.4830 C.2    50  LEU50       0.2260
     70  O         36.7350   84.0910   15.3920 O.2    50  LEU50      -0.2867
     71  CB        35.9020   81.2350   16.8550 C.3    50  LEU50       0.0270
     72  CG        34.8090   81.3610   15.7840 C.3    50  LEU50       0.0019
     73  CD1       35.3250   80.8410   14.4600 C.3    50  LEU50       0.0001
     74  CD2       33.5860   80.5850   16.2080 C.3    50  LEU50       0.0001
     75  N         39.3200   86.0330   15.0610 N.3    53  MET53      -0.1230
     76  CA        39.4200   86.0110   13.6100 C.3    53  MET53       0.1702
     77  C         38.3620   86.8860   12.9710 C.2    53  MET53       0.2592
     78  O         38.6150   87.6170   12.0260 O.2    53  MET53      -0.2718
     79  CB        39.2600   84.6010   13.0730 C.3    53  MET53       0.0401
     80  CG        39.1260   84.6030   11.5800 C.3    53  MET53       0.0596
     81  SD        38.8580   82.9930   10.8950 S.3    53  MET53      -0.1393
     82  CE        37.0680   82.9500   10.7990 C.3    53  MET53       0.0692
     83  N         37.1610   86.7950   13.4940 N.am   54  TYR54      -0.1976
     84  CA        36.0680   87.5710   12.9650 C.3    54  TYR54       0.1639
     85  C         36.2000   89.0570   13.2230 C.2    54  TYR54       0.2290
     86  O         35.8360   89.8610   12.3630 O.2    54  TYR54      -0.2864
     87  CB        34.7480   87.0390   13.5280 C.3    54  TYR54       0.0560
     88  CG        34.2450   85.8620   12.7390 C.ar   54  TYR54      -0.0198
     89  CD1       33.6870   84.7490   13.3570 C.ar   54  TYR54      -0.0009
     90  CD2       34.3540   85.8610   11.3650 C.ar   54  TYR54      -0.0009
     91  CE1       33.2580   83.6670   12.6130 C.ar   54  TYR54       0.0417
     92  CE2       33.9310   84.7970   10.6230 C.ar   54  TYR54       0.0417
     93  CZ        33.3860   83.7050   11.2410 C.ar   54  TYR54       0.1957
     94  OH        32.9770   82.6810   10.4320 O.3    54  TYR54      -0.2866
     95  N         44.2660   81.4320   13.8200 N.3    64  PHE64      -0.1227
     96  CA        43.0560   80.6230   13.8480 C.3    64  PHE64       0.1736
     97  C         43.1280   79.4480   12.8870 C.2    64  PHE64       0.2595
     98  O         43.0420   78.2850   13.2810 O.2    64  PHE64      -0.2718
     99  CB        41.8180   81.4330   13.4800 C.3    64  PHE64       0.0547
    100  CG        40.5700   80.6070   13.4930 C.ar   64  PHE64      -0.0202
    101  CD1       39.7850   80.5320   14.6370 C.ar   64  PHE64      -0.0042
    102  CD2       40.2460   79.7930   12.4080 C.ar   64  PHE64      -0.0042
    103  CE1       38.7000   79.6490   14.7020 C.ar   64  PHE64      -0.0003
    104  CE2       39.1710   78.9140   12.4690 C.ar   64  PHE64      -0.0003
    105  CZ        38.3990   78.8400   13.6170 C.ar   64  PHE64      -0.0000
    106  N         43.2700   79.7720   11.6120 N.am   65  GLN65      -0.1979
    107  CA        43.3350   78.7700   10.5740 C.3    65  GLN65       0.1601
    108  C         44.3130   77.6340   10.8620 C.2    65  GLN65       0.2287
    109  O         44.0670   76.4800   10.5090 O.2    65  GLN65      -0.2864
    110  CB        43.7020   79.4400    9.2680 C.3    65  GLN65       0.0394
    111  CG        43.0090   78.8150    8.1110 C.3    65  GLN65       0.0908
    112  CD        41.5250   78.6980    8.3680 C.2    65  GLN65       0.2608
    113  OE1       40.9820   77.5910    8.4080 O.2    65  GLN65      -0.2717
    114  NE2       40.8570   79.8390    8.5550 N.am   65  GLN65      -0.0878
    115  N         42.8360   75.7060   14.0100 N.3    68  ALA68      -0.1245
    116  CA        41.6260   75.0150   13.5930 C.3    68  ALA68       0.1562
    117  C         41.9110   73.7070   12.8720 C.2    68  ALA68       0.2260
    118  O         41.2570   72.6990   13.1240 O.2    68  ALA68      -0.2867
    119  CB        40.7910   75.9290   12.7180 C.3    68  ALA68       0.0290
    120  N         41.6700   69.6690   14.3570 N.3    72  ARG72      -0.1245
    121  CA        40.8810   68.7230   13.6070 C.3    72  ARG72       0.1563
    122  C         41.7060   67.4620   13.4160 C.2    72  ARG72       0.2260
    123  O         41.2530   66.3750   13.7420 O.2    72  ARG72      -0.2867
    124  CB        40.4870   69.3000   12.2470 C.3    72  ARG72       0.0307
    125  CG        39.4960   68.4260   11.4740 C.3    72  ARG72       0.0489
    126  CD        39.3580   68.8620   10.0320 C.3    72  ARG72       0.2205
    127  NE        38.8830   70.2310    9.9270 N.pl3  72  ARG72      -0.0865
    128  CZ        37.6660   70.6290   10.2750 C.cat  72  ARG72       0.5346
    129  NH1       36.7980   69.7490   10.7530 N.pl3  72  ARG72       0.1354
    130  NH2       37.3160   71.9030   10.1440 N.pl3  72  ARG72       0.1354
    131  N         32.9890   65.8720   10.3990 N.3    95  GLU95      -0.1231
    132  CA        32.3020   67.1340   10.1410 C.3    95  GLU95       0.1699
    133  C         33.3990   68.0190    9.5370 C.2    95  GLU95       0.2592
    134  O         34.1840   68.6220   10.2810 O.2    95  GLU95      -0.2718
    135  CB        31.7730   67.7510   11.4420 C.3    95  GLU95       0.0402
    136  CG        30.7020   68.8150   11.2120 C.3    95  GLU95       0.1161
    137  CD        30.2190   69.4870   12.4920 C.2    95  GLU95       0.3649
    138  OE1       29.8130   68.7810   13.4490 O.co2  95  GLU95      -0.2457
    139  OE2       30.2380   70.7360   12.5300 O.co2  95  GLU95      -0.2457
    140  N         33.4570   68.0670    8.2000 N.am   96  ARG96      -0.1980
    141  CA        34.4730   68.8300    7.4520 C.3    96  ARG96       0.1597
    142  C         35.8380   68.1260    7.4990 C.2    96  ARG96       0.2287
    143  O         36.1630   67.4360    8.4730 O.2    96  ARG96      -0.2864
    144  CB        34.6330   70.2530    7.9990 C.3    96  ARG96       0.0334
    145  CG        34.0390   71.3590    7.1400 C.3    96  ARG96       0.0492
    146  CD        34.4910   72.6930    7.6990 C.3    96  ARG96       0.2205
    147  NE        33.7350   73.8440    7.2120 N.pl3  96  ARG96      -0.0865
    148  CZ        32.4270   74.0120    7.3760 C.cat  96  ARG96       0.5346
    149  NH1       31.7170   73.0990    8.0030 N.pl3  96  ARG96       0.1354
    150  NH2       31.8250   75.1170    6.9600 N.pl3  96  ARG96       0.1354
    151  N         39.4350   72.8120    4.9680 N.3   101  ASP101     -0.1239
    152  CA        40.0270   73.8240    5.8470 C.3   101  ASP101      0.1674
    153  C         40.9410   74.7110    5.0210 C.2   101  ASP101      0.2266
    154  O         40.8200   75.9350    5.0050 O.2   101  ASP101     -0.2867
    155  CB        40.8790   73.1880    6.9490 C.3   101  ASP101      0.1410
    156  CG        40.0670   72.7320    8.1250 C.2   101  ASP101      0.3668
    157  OD1       39.2710   73.5400    8.6490 O.co2 101  ASP101     -0.2456
    158  OD2       40.2400   71.5650    8.5320 O.co2 101  ASP101     -0.2456
    159  N         38.3380   77.5770    3.2660 N.3   105  PHE105     -0.1241
    160  CA        38.4770   78.7140    4.1740 C.3   105  PHE105      0.1605
    161  C         39.7910   79.4530    4.1950 C.2   105  PHE105      0.2264
    162  O         39.8210   80.6520    3.9440 O.2   105  PHE105     -0.2867
    163  CB        38.1590   78.2790    5.5880 C.3   105  PHE105      0.0534
    164  CG        36.7710   77.7870    5.7600 C.ar  105  PHE105     -0.0203
    165  CD1       36.4190   76.5230    5.3240 C.ar  105  PHE105     -0.0042
    166  CD2       35.8060   78.6000    6.3460 C.ar  105  PHE105     -0.0042
    167  CE1       35.1260   76.0690    5.4640 C.ar  105  PHE105     -0.0003
    168  CE2       34.5050   78.1620    6.4950 C.ar  105  PHE105     -0.0003
    169  CZ        34.1600   76.8900    6.0520 C.ar  105  PHE105     -0.0000
    170  N         40.5230   83.0810    2.7420 N.3   109  LEU109     -0.1245
    171  CA        40.9560   84.1840    3.5930 C.3   109  LEU109      0.1561
    172  C         42.1620   84.8230    2.9380 C.2   109  LEU109      0.2260
    173  O         42.3280   86.0460    2.9560 O.2   109  LEU109     -0.2867
    174  CB        41.3240   83.6950    4.9870 C.3   109  LEU109      0.0270
    175  CG        40.1160   83.4190    5.8720 C.3   109  LEU109      0.0019
    176  CD1       40.6040   83.0210    7.2660 C.3   109  LEU109      0.0001
    177  CD2       39.2310   84.6510    5.9330 C.3   109  LEU109      0.0001
    178  N         20.8660   79.3490   14.4790 N.3   160  ARG160     -0.1245
    179  CA        21.8420   78.7460   15.3870 C.3   160  ARG160      0.1563
    180  C         22.1380   79.7530   16.4890 C.2   160  ARG160      0.2260
    181  O         21.8630   79.4980   17.6580 O.2   160  ARG160     -0.2867
    182  CB        23.1200   78.4020   14.6250 C.3   160  ARG160      0.0307
    183  CG        24.3300   78.1680   15.4880 C.3   160  ARG160      0.0489
    184  CD        25.5930   78.2850   14.6510 C.3   160  ARG160      0.2205
    185  NE        25.8290   77.1060   13.8230 N.pl3 160  ARG160     -0.0865
    186  CZ        26.8340   76.9880   12.9580 C.cat 160  ARG160      0.5346
    187  NH1       27.6950   77.9770   12.7960 N.pl3 160  ARG160      0.1354
    188  NH2       27.0020   75.8680   12.2710 N.pl3 160  ARG160      0.1354
    189  N         25.4030   81.5080   17.1820 N.3   162  ARG162     -0.1245
    190  CA        26.7250   81.7600   17.7420 C.3   162  ARG162      0.1563
    191  C         27.0270   83.2470   17.5820 C.2   162  ARG162      0.2260
    192  O         27.1220   83.7470   16.4670 O.2   162  ARG162     -0.2867
    193  CB        27.7850   80.9460   17.0130 C.3   162  ARG162      0.0307
    194  CG        27.7000   79.4580   17.2290 C.3   162  ARG162      0.0489
    195  CD        28.7610   78.7760   16.3960 C.3   162  ARG162      0.2205
    196  NE        28.5830   77.3330   16.3170 N.pl3 162  ARG162     -0.0865
    197  CZ        29.1330   76.5770   15.3750 C.cat 162  ARG162      0.5346
    198  NH1       29.8890   77.1330   14.4430 N.pl3 162  ARG162      0.1354
    199  NH2       28.9230   75.2690   15.3550 N.pl3 162  ARG162      0.1354
    200  N         29.7450   84.5490   14.8800 N.3   165  GLU165     -0.1245
    201  CA        29.4130   84.5950   13.4620 C.3   165  GLU165      0.1567
    202  C         28.1340   85.3500   13.1030 C.2   165  GLU165      0.2260
    203  O         27.5330   85.1040   12.0550 O.2   165  GLU165     -0.2867
    204  CB        29.3260   83.1630   12.9460 C.3   165  GLU165      0.0388
    205  CG        28.2370   82.3660   13.6100 C.3   165  GLU165      0.1160
    206  CD        28.3900   80.8810   13.4080 C.2   165  GLU165      0.3649
    207  OE1       27.3430   80.2110   13.2810 O.co2 165  GLU165     -0.2457
    208  OE2       29.5400   80.3870   13.3950 O.co2 165  GLU165     -0.2457
    209  N         30.3520   87.0440    2.1250 N.3   172  TYR172     -0.1241
    210  CA        31.2430   86.0330    2.6640 C.3   172  TYR172      0.1605
    211  C         30.6900   84.6330    2.3980 C.2   172  TYR172      0.2264
    212  O         31.3250   83.8190    1.7210 O.2   172  TYR172     -0.2867
    213  CB        31.4080   86.2410    4.1620 C.3   172  TYR172      0.0534
    214  CG        32.5050   85.4100    4.7600 C.ar  172  TYR172     -0.0201
    215  CD1       33.8300   85.6430    4.4340 C.ar  172  TYR172     -0.0009
    216  CD2       32.2200   84.4020    5.6680 C.ar  172  TYR172     -0.0009
    217  CE1       34.8470   84.8930    5.0000 C.ar  172  TYR172      0.0417
    218  CE2       33.2320   83.6460    6.2440 C.ar  172  TYR172      0.0417
    219  CZ        34.5380   83.8970    5.9060 C.ar  172  TYR172      0.1957
    220  OH        35.5310   83.1490    6.4860 O.3   172  TYR172     -0.2866
@<TRIPOS>BOND
     1   212   211    2
     2     8     6   am
     3   209   210    1
     4   211   210    1
     5   210   213    1
     6   170   171    1
     7   172   173    2
     8   172   171    1
     9     6     5    1
    10     6     7    2
    11   159   160    1
    12     5     2    1
    13   171   174    1
    14     1     2    1
    15   162   161    2
    16   213   214    1
    17     2     3    1
    18   160   161    1
    19   160   163    1
    20   215   214   ar
    21   215   217   ar
    22   214   216   ar
    23   151   152    1
    24   174   175    1
    25   217   219   ar
    26   154   153    2
    27   153   152    1
    28   165   167   ar
    29   165   164   ar
    30   167   169   ar
    31   163   164    1
    32   216   218   ar
    33     3     9   am
    34     3     4    2
    35   164   166   ar
    36   152   155    1
    37   175   177    1
    38   175   176    1
    39   219   218   ar
    40   219   220    1
    41   169   168   ar
    42     9    10    1
    43   166   168   ar
    44   155   156    1
    45   150   148    1
    46    12    11    2
    47   145   146    1
    48   145   144    1
    49   147   148    2
    50   147   146    1
    51    28    27    1
    52    28    29    1
    53   148   149    1
    54    27    26    1
    55   141   142    1
    56   141   144    1
    57   141   140    1
    58    29    30    1
    59   142   143    2
    60    10    13    1
    61    10    11    1
    62    14    13    1
    63    14    16    1
    64    13    15    1
    65    11    17   am
    66   111   112    1
    67   111   110    1
    68   156   158   ar
    69   156   157   ar
    70   140   133   am
    71    20    19    2
    72    19    18    1
    73   112   113    2
    74   112   114   am
    75    22    23    1
    76    23    26    1
    77    23    24    1
    78    17    18    1
    79   110   107    1
    80    18    21    1
    81   133   132    1
    82   133   134    2
    83   127   126    1
    84   127   128    2
    85   126   125    1
    86    24    25    2
    87    24    31   am
    88   132   131    1
    89   132   135    1
    90   130   128    1
    91   128   129    1
    92    94    93    1
    93    44    43   ar
    94   109   108    2
    95   107   108    1
    96   107   106    1
    97    92    93   ar
    98    92    90   ar
    99    82    81    1
   100    81    80    1
   101    31    32    1
   102   136   135    1
   103   136   137    1
   104    93    91   ar
   105    90    88   ar
   106   125   124    1
   107    80    79    1
   108    43    45   ar
   109    43    42    1
   110   106    97   am
   111    78    77    2
   112   203   202    2
   113   124   121    1
   114   188   186    1
   115    42    41    1
   116    86    85    2
   117   102   104   ar
   118   102   100   ar
   119   104   105   ar
   120   137   139   ar
   121   137   138   ar
   122    32    33    1
   123    32    35    1
   124    33    34    2
   125    91    89   ar
   126   119   116    1
   127    88    89   ar
   128    88    87    1
   129   187   186    1
   130   117   118    2
   131   117   116    1
   132    97    98    2
   133    97    96    1
   134   204   201    1
   135   204   205    1
   136   186   185    2
   137    84    85    1
   138    84    83    1
   139    84    87    1
   140    77    83   am
   141    77    76    1
   142    79    76    1
   143   202   201    1
   144    66    65   ar
   145    66    64   ar
   146   207   206   ar
   147    36    35    1
   148   208   206   ar
   149   206   205    1
   150    41    38    1
   151   122   121    1
   152   122   123    2
   153   201   200    1
   154    99   100    1
   155    99    96    1
   156   100   101   ar
   157   116   115    1
   158   121   120    1
   159    76    75    1
   160   105   103   ar
   161    65    63   ar
   162    95    96    1
   163   185   184    1
   164    64    62   ar
   165    38    37    1
   166    38    39    1
   167   198   197    1
   168    73    72    1
   169   178   179    1
   170   182   179    1
   171   182   183    1
   172   101   103   ar
   173   184   183    1
   174    63    60   ar
   175    62    60   ar
   176    62    61   ar
   177   199   197    1
   178   197   196    2
   179   179   180    1
   180    70    69    2
   181    60    58   ar
   182    39    40    2
   183    72    74    1
   184    72    71    1
   185    61    59   ar
   186   196   195    1
   187   195   194    1
   188   192   191    2
   189    69    68    1
   190   180   181    2
   191    68    71    1
   192    68    67    1
   193    50    52    1
   194    50    51    1
   195    50    47    1
   196    58    59   ar
   197    58    57    1
   198   193   194    1
   199   193   190    1
   200    46    47    1
   201   189   190    1
   202    47    48    1
   203   191   190    1
   204    57    54    1
   205    48    49    2
   206    54    55    1
   207    54    53    1
   208    56    55    2
