@<TRIPOS>MOLECULE
tmp/2qrpA00.pdb
 221 212 0 0 0
SMALL
GASTEIGER

@<TRIPOS>ATOM
      1  N         32.6410   20.0250   38.7250 N.3    79  GLU79      -0.1245
      2  CA        31.3260   20.5210   38.3460 C.3    79  GLU79       0.1567
      3  C         30.3520   19.3870   38.0470 C.2    79  GLU79       0.2260
      4  O         30.6750   18.4610   37.3040 O.2    79  GLU79      -0.2867
      5  CB        31.4340   21.4320   37.1230 C.3    79  GLU79       0.0388
      6  CG        32.2920   22.6740   37.3360 C.3    79  GLU79       0.1160
      7  CD        32.2150   23.6510   36.1840 C.2    79  GLU79       0.3649
      8  OE1       33.1290   24.4950   36.0680 O.co2  79  GLU79      -0.2457
      9  OE2       31.2490   23.5770   35.3950 O.co2  79  GLU79      -0.2457
     10  N         29.0770   25.2860   35.4190 N.3   124  ASN124     -0.1225
     11  CA        29.0620   26.4910   34.6040 C.3   124  ASN124      0.1785
     12  C         28.2680   26.3550   33.3210 C.2   124  ASN124      0.2598
     13  O         27.6210   27.3050   32.8790 O.2   124  ASN124     -0.2718
     14  CB        30.4930   26.8820   34.2540 C.3   124  ASN124      0.1169
     15  CG        31.1460   27.6750   35.3450 C.2   124  ASN124      0.2627
     16  OD1       30.7860   28.8250   35.5750 O.2   124  ASN124     -0.2716
     17  ND2       32.1120   27.0670   36.0350 N.am  124  ASN124     -0.0877
     18  N         28.3430   25.1770   32.7130 N.am  125  GLY125     -0.1942
     19  CA        27.7030   24.9510   31.4270 C.3   125  GLY125      0.2014
     20  C         27.9020   23.5330   30.9650 C.2   125  GLY125      0.2639
     21  O         27.5850   22.5900   31.6930 O.2   125  GLY125     -0.2714
     22  N         28.4520   23.4020   29.7600 N.am  126  GLY126     -0.1939
     23  CA        28.6030   22.1270   29.0680 C.3   126  GLY126      0.2014
     24  C         29.4060   21.0590   29.7840 C.2   126  GLY126      0.2638
     25  O         29.0190   19.8920   29.7780 O.2   126  GLY126     -0.2714
     26  N         30.5260   21.4520   30.3900 N.am  127  LEU127     -0.1977
     27  CA        31.3870   20.5060   31.1050 C.3   127  LEU127      0.1596
     28  C         30.6680   19.9030   32.3110 C.2   127  LEU127      0.2287
     29  O         30.7090   18.6880   32.5140 O.2   127  LEU127     -0.2864
     30  CB        32.7030   21.1770   31.5350 C.3   127  LEU127      0.0297
     31  CG        33.7500   20.3340   32.2810 C.3   127  LEU127      0.0022
     32  CD1       35.1540   20.7310   31.8710 C.3   127  LEU127      0.0001
     33  CD2       33.6000   20.4650   33.7930 C.3   127  LEU127      0.0001
     34  N         27.6880   17.7930   31.0600 N.3   130  LEU130     -0.1245
     35  CA        28.1910   16.5090   30.5600 C.3   130  LEU130      0.1561
     36  C         28.3620   15.5060   31.6990 C.2   130  LEU130      0.2260
     37  O         27.9450   14.3550   31.5860 O.2   130  LEU130     -0.2867
     38  CB        29.5180   16.6790   29.8160 C.3   130  LEU130      0.0270
     39  CG        30.0080   15.4410   29.0610 C.3   130  LEU130      0.0019
     40  CD1       29.2190   15.2450   27.7590 C.3   130  LEU130      0.0001
     41  CD2       31.5060   15.5490   28.7940 C.3   130  LEU130      0.0001
     42  N         33.7280   30.6160   36.0020 N.3   267  ASN267     -0.1225
     43  CA        34.3680   30.7540   34.6920 C.3   267  ASN267      0.1785
     44  C         34.0930   29.5960   33.7450 C.2   267  ASN267      0.2597
     45  O         34.2500   28.4290   34.1080 O.2   267  ASN267     -0.2718
     46  CB        35.8730   30.9420   34.8370 C.3   267  ASN267      0.1169
     47  CG        36.2270   32.1200   35.7110 C.2   267  ASN267      0.2627
     48  OD1       35.7570   33.2380   35.4910 O.2   267  ASN267     -0.2716
     49  ND2       37.0530   31.8760   36.7210 N.am  267  ASN267     -0.0877
     50  N         33.6840   29.9420   32.5290 N.am  268  ASP268     -0.1960
     51  CA        33.5120   28.9820   31.4490 C.3   268  ASP268      0.1840
     52  C         34.7090   29.1460   30.5170 C.2   268  ASP268      0.2622
     53  O         34.9660   30.2440   30.0270 O.2   268  ASP268     -0.2715
     54  CB        32.2010   29.2660   30.7100 C.3   268  ASP268      0.1450
     55  CG        31.7860   28.1370   29.7900 C.2   268  ASP268      0.3671
     56  OD1       30.8920   27.3590   30.1820 O.co2 268  ASP268     -0.2456
     57  OD2       32.3460   28.0250   28.6780 O.co2 268  ASP268     -0.2456
     58  N         35.4580   28.0650   30.3030 N.am  269  ASN269     -0.1958
     59  CA        36.6320   28.0810   29.4210 C.3   269  ASN269      0.1819
     60  C         37.6820   29.1370   29.7640 C.2   269  ASN269      0.2621
     61  O         38.2200   29.8030   28.8770 O.2   269  ASN269     -0.2715
     62  CB        36.2050   28.2210   27.9550 C.3   269  ASN269      0.1195
     63  CG        35.8090   26.9050   27.3420 C.2   269  ASN269      0.2630
     64  OD1       34.6490   26.6930   26.9870 O.2   269  ASN269     -0.2716
     65  ND2       36.7690   26.0030   27.2250 N.am  269  ASN269     -0.0877
     66  N         37.9670   29.2890   31.0540 N.am  270  PHE270     -0.1960
     67  CA        38.9750   30.2430   31.5040 C.3   270  PHE270      0.1771
     68  C         39.6120   29.7590   32.7960 C.2   270  PHE270      0.2619
     69  O         38.9120   29.4140   33.7490 O.2   270  PHE270     -0.2715
     70  CB        38.3640   31.6400   31.6870 C.3   270  PHE270      0.0574
     71  CG        39.3660   32.7040   32.0680 C.ar  270  PHE270     -0.0200
     72  CD1       39.4000   33.2120   33.3630 C.ar  270  PHE270     -0.0042
     73  CD2       40.2650   33.2060   31.1300 C.ar  270  PHE270     -0.0042
     74  CE1       40.3170   34.1990   33.7230 C.ar  270  PHE270     -0.0003
     75  CE2       41.1850   34.1910   31.4800 C.ar  270  PHE270     -0.0003
     76  CZ        41.2110   34.6870   32.7830 C.ar  270  PHE270     -0.0000
     77  N         40.9430   29.7230   32.8060 N.am  271  PHE271     -0.1974
     78  CA        41.6980   29.3320   33.9890 C.3   271  PHE271      0.1639
     79  C         42.0510   30.5610   34.8130 C.2   271  PHE271      0.2290
     80  O         42.7080   31.4840   34.3280 O.2   271  PHE271     -0.2864
     81  CB        42.9680   28.5570   33.6120 C.3   271  PHE271      0.0560
     82  CG        43.9440   28.3820   34.7530 C.ar  271  PHE271     -0.0200
     83  CD1       45.2120   28.9560   34.6950 C.ar  271  PHE271     -0.0042
     84  CD2       43.5920   27.6520   35.8870 C.ar  271  PHE271     -0.0042
     85  CE1       46.1190   28.8000   35.7420 C.ar  271  PHE271     -0.0003
     86  CE2       44.4920   27.4870   36.9390 C.ar  271  PHE271     -0.0003
     87  CZ        45.7570   28.0630   36.8680 C.ar  271  PHE271     -0.0000
     88  N         40.7990   28.1050   44.4820 N.3   277  ARG277     -0.1245
     89  CA        40.4770   27.1130   43.4570 C.3   277  ARG277      0.1563
     90  C         41.3920   25.8870   43.5680 C.2   277  ARG277      0.2260
     91  O         40.9240   24.7520   43.4800 O.2   277  ARG277     -0.2867
     92  CB        40.5310   27.7430   42.0540 C.3   277  ARG277      0.0307
     93  CG        40.4510   26.7630   40.8790 C.3   277  ARG277      0.0489
     94  CD        39.1190   26.0110   40.8050 C.3   277  ARG277      0.2205
     95  NE        39.0190   25.2870   39.5400 N.pl3 277  ARG277     -0.0865
     96  CZ        37.8830   24.9490   38.9370 C.cat 277  ARG277      0.5346
     97  NH1       36.7080   25.2500   39.4800 N.pl3 277  ARG277      0.1354
     98  NH2       37.9300   24.3110   37.7740 N.pl3 277  ARG277      0.1354
     99  N         38.5490   16.8960   32.6150 N.3   315  ASP315     -0.1239
    100  CA        39.6080   17.8890   32.3830 C.3   315  ASP315      0.1674
    101  C         40.7170   17.7740   33.4400 C.2   315  ASP315      0.2266
    102  O         40.7990   16.7670   34.1480 O.2   315  ASP315     -0.2867
    103  CB        39.0510   19.3170   32.2480 C.3   315  ASP315      0.1410
    104  CG        39.7800   20.1160   31.1800 C.2   315  ASP315      0.3668
    105  OD1       39.2930   20.1650   30.0300 O.co2 315  ASP315     -0.2456
    106  OD2       40.8610   20.6560   31.4780 O.co2 315  ASP315     -0.2456
    107  N         41.1130   19.5790   36.0390 N.3   317  HIS317     -0.1241
    108  CA        40.7050   20.1380   37.3300 C.3   317  HIS317      0.1621
    109  C         40.9630   19.1910   38.5170 C.2   317  HIS317      0.2264
    110  O         41.4490   19.6320   39.5550 O.2   317  HIS317     -0.2867
    111  CB        39.2690   20.6810   37.2770 C.3   317  HIS317      0.0745
    112  CG        38.9700   21.4690   36.0360 C.ar  317  HIS317      0.0817
    113  ND1       37.7010   21.5820   35.5140 N.ar  317  HIS317     -0.2268
    114  CD2       39.7830   22.1570   35.1960 C.ar  317  HIS317      0.1154
    115  CE1       37.7400   22.3120   34.4140 C.ar  317  HIS317      0.1986
    116  NE2       38.9940   22.6730   34.1980 N.ar  317  HIS317     -0.2212
    117  N         38.7560   18.9350   27.4390 N.3   353  HIS353     -0.1226
    118  CA        37.5280   19.5990   26.9770 C.3   353  HIS353      0.1752
    119  C         37.7450   20.9490   26.3020 C.2   353  HIS353      0.2596
    120  O         36.7840   21.5750   25.8530 O.2   353  HIS353     -0.2718
    121  CB        36.5660   19.8410   28.1450 C.3   353  HIS353      0.0759
    122  CG        36.1380   18.6000   28.8560 C.ar  353  HIS353      0.0818
    123  ND1       34.9440   17.9660   28.5900 N.ar  353  HIS353     -0.2268
    124  CD2       36.7310   17.8880   29.8420 C.ar  353  HIS353      0.1154
    125  CE1       34.8260   16.9100   29.3740 C.ar  353  HIS353      0.1986
    126  NE2       35.8970   16.8410   30.1440 N.ar  353  HIS353     -0.2212
    127  N         38.9800   21.4310   26.2490 N.am  354  THR354     -0.1953
    128  CA        39.1670   22.8090   25.7980 C.3   354  THR354      0.1897
    129  C         40.3900   23.0470   24.9250 C.2   354  THR354      0.2313
    130  O         41.3960   22.3480   25.0350 O.2   354  THR354     -0.2863
    131  CB        39.0690   23.8270   26.9710 C.3   354  THR354      0.1794
    132  OG1       39.2590   25.1570   26.4660 O.3   354  THR354     -0.2208
    133  CG2       40.0790   23.5150   28.0850 C.3   354  THR354      0.0378
    134  N         42.3850   28.6480   28.8060 N.3   359  ALA359     -0.1245
    135  CA        41.5580   27.6950   29.5470 C.3   359  ALA359      0.1562
    136  C         42.3900   26.5610   30.1560 C.2   359  ALA359      0.2260
    137  O         41.8890   25.7880   30.9740 O.2   359  ALA359     -0.2867
    138  CB        40.4660   27.1370   28.6500 C.3   359  ALA359      0.0290
    139  N         45.1340   24.8370   32.5450 N.3   361  GLU361     -0.1245
    140  CA        45.6200   25.0410   33.9050 C.3   361  GLU361      0.1567
    141  C         47.1340   24.9620   33.9760 C.2   361  GLU361      0.2260
    142  O         47.7310   23.9360   33.6360 O.2   361  GLU361     -0.2867
    143  CB        45.0210   24.0100   34.8570 C.3   361  GLU361      0.0388
    144  CG        43.5330   24.1580   35.0630 C.3   361  GLU361      0.1160
    145  CD        43.0650   23.4030   36.2760 C.2   361  GLU361      0.3649
    146  OE1       43.1590   22.1550   36.2760 O.co2 361  GLU361     -0.2457
    147  OE2       42.6060   24.0650   37.2250 O.co2 361  GLU361     -0.2457
    148  N         36.6260   15.4340   22.9420 N.3   431  VAL431     -0.1245
    149  CA        35.1810   15.3050   23.1740 C.3   431  VAL431      0.1561
    150  C         34.3090   15.3950   21.9100 C.2   431  VAL431      0.2260
    151  O         33.0820   15.3880   21.9910 O.2   431  VAL431     -0.2867
    152  CB        34.6990   16.2960   24.2690 C.3   431  VAL431      0.0252
    153  CG1       35.2700   15.9010   25.6290 C.3   431  VAL431      0.0019
    154  CG2       35.0950   17.7330   23.9250 C.3   431  VAL431      0.0019
    155  N         30.9370   13.6860   22.5870 N.3   460  ASN460     -0.1240
    156  CA        29.9760   13.9610   23.6510 C.3   460  ASN460      0.1653
    157  C         28.5680   13.4830   23.3140 C.2   460  ASN460      0.2266
    158  O         28.2580   13.1360   22.1660 O.2   460  ASN460     -0.2867
    159  CB        29.9500   15.4550   23.9970 C.3   460  ASN460      0.1155
    160  CG        31.1060   15.8830   24.9000 C.2   460  ASN460      0.2627
    161  OD1       31.3520   17.0750   25.0690 O.2   460  ASN460     -0.2716
    162  ND2       31.8050   14.9230   25.4830 N.am  460  ASN460     -0.0877
    163  N         34.2530   33.5410   21.7090 N.3   549  TYR549     -0.1227
    164  CA        34.4010   32.4600   20.7260 C.3   549  TYR549      0.1736
    165  C         33.0680   31.8970   20.2450 C.2   549  TYR549      0.2595
    166  O         32.9820   31.3970   19.1250 O.2   549  TYR549     -0.2718
    167  CB        35.3450   31.3470   21.2090 C.3   549  TYR549      0.0548
    168  CG        34.7410   30.2340   22.0490 C.ar  549  TYR549     -0.0200
    169  CD1       34.1030   29.1420   21.4470 C.ar  549  TYR549     -0.0009
    170  CD2       34.8600   30.2420   23.4360 C.ar  549  TYR549     -0.0009
    171  CE1       33.5690   28.1070   22.2080 C.ar  549  TYR549      0.0417
    172  CE2       34.3300   29.2050   24.2100 C.ar  549  TYR549      0.0417
    173  CZ        33.6860   28.1450   23.5890 C.ar  549  TYR549      0.1957
    174  OH        33.1700   27.1140   24.3460 O.3   549  TYR549     -0.2866
    175  N         32.0460   31.9780   21.0940 N.am  550  LYS550     -0.1980
    176  CA        30.7080   31.4680   20.7620 C.3   550  LYS550      0.1596
    177  C         29.9390   32.4470   19.8660 C.2   550  LYS550      0.2287
    178  O         28.8950   32.1100   19.2970 O.2   550  LYS550     -0.2864
    179  CB        29.9220   31.1730   22.0380 C.3   550  LYS550      0.0298
    180  CG        30.4170   29.9500   22.8070 C.3   550  LYS550      0.0038
    181  CD        29.6430   29.8040   24.1220 C.3   550  LYS550      0.0206
    182  CE        30.2230   28.7330   25.0420 C.3   550  LYS550      0.1093
    183  NZ        29.9220   27.3400   24.5700 N.3   550  LYS550     -0.1314
    184  N         37.0190   26.3210   17.6720 N.3   647  THR647     -0.1203
    185  CA        36.9680   26.8840   19.0280 C.3   647  THR647      0.1994
    186  C         36.0460   26.1530   20.0100 C.2   647  THR647      0.2618
    187  O         36.3350   26.1110   21.2050 O.2   647  THR647     -0.2717
    188  CB        36.6120   28.3920   19.0310 C.3   647  THR647      0.1784
    189  OG1       35.2940   28.5840   18.5070 O.3   647  THR647     -0.2211
    190  CG2       37.6260   29.2090   18.2190 C.3   647  THR647      0.0376
    191  N         34.9430   25.5930   19.5140 N.am  648  GLU648     -0.1965
    192  CA        34.0390   24.8040   20.3520 C.3   648  GLU648      0.1733
    193  C         34.4640   23.3420   20.2800 C.2   648  GLU648      0.2616
    194  O         34.2900   22.6940   19.2460 O.2   648  GLU648     -0.2715
    195  CB        32.5800   24.9700   19.8950 C.3   648  GLU648      0.0429
    196  CG        31.5330   24.4330   20.8740 C.3   648  GLU648      0.1163
    197  CD        31.3430   25.3370   22.0770 C.2   648  GLU648      0.3649
    198  OE1       31.9720   25.0770   23.1240 O.co2 648  GLU648     -0.2457
    199  OE2       30.5890   26.3250   21.9660 O.co2 648  GLU648     -0.2457
    200  N         35.0310   22.8290   21.3720 N.am  649  ALA649     -0.1963
    201  CA        35.5820   21.4720   21.3870 C.3   649  ALA649      0.1728
    202  C         34.5430   20.4370   20.9490 C.2   649  ALA649      0.2617
    203  O         34.8450   19.5370   20.1600 O.2   649  ALA649     -0.2715
    204  CB        36.1430   21.1340   22.7610 C.3   649  ALA649      0.0334
    205  N         33.3200   20.5770   21.4560 N.am  650  SER650     -0.1936
    206  CA        32.2110   19.7220   21.0250 C.3   650  SER650      0.2055
    207  C         30.9000   20.4880   20.9710 C.2   650  SER650      0.2644
    208  O         30.2490   20.5560   19.9260 O.2   650  SER650     -0.2714
    209  CB        32.0550   18.5120   21.9540 C.3   650  SER650      0.2130
    210  OG        30.8530   17.8030   21.6740 O.3   650  SER650     -0.2179
    211  N         30.5170   21.0630   22.1090 N.am  651  GLY651     -0.1939
    212  CA        29.1680   21.5620   22.2860 C.3   651  GLY651      0.2014
    213  C         28.2580   20.4040   22.6590 C.2   651  GLY651      0.2639
    214  O         28.5120   19.2510   22.2880 O.2   651  GLY651     -0.2714
    215  N         27.2150   20.7050   23.4240 N.am  652  THR652     -0.1950
    216  CA        26.1970   19.7140   23.7810 C.3   652  THR652      0.1897
    217  C         24.8070   20.3050   23.6140 C.2   652  THR652      0.2313
    218  O         23.8370   19.5740   23.3960 O.2   652  THR652     -0.2863
    219  CB        26.3590   19.2040   25.2220 C.3   652  THR652      0.1794
    220  OG1       26.5430   20.3190   26.1010 O.3   652  THR652     -0.2208
    221  CG2       27.5590   18.2650   25.3280 C.3   652  THR652      0.0378
@<TRIPOS>BOND
     1   184   185    1
     2   190   188    1
     3   189   188    1
     4   185   188    1
     5   185   186    1
     6   166   165    2
     7   194   193    2
     8   178   177    2
     9   191   186   am
    10   191   192    1
    11   177   176    1
    12   195   192    1
    13   195   196    1
    14   208   207    2
    15   186   187    2
    16   203   202    2
    17   165   164    1
    18   165   175   am
    19   193   192    1
    20   193   200   am
    21   164   167    1
    22   164   163    1
    23   176   175    1
    24   176   179    1
    25   196   197    1
    26   202   201    1
    27   202   205   am
    28   207   206    1
    29   207   211   am
    30   206   205    1
    31   206   209    1
    32   167   168    1
    33   200   201    1
    34   201   204    1
    35   169   168   ar
    36   169   171   ar
    37   210   209    1
    38   150   151    2
    39   150   149    1
    40   199   197   ar
    41   179   180    1
    42   168   170   ar
    43   197   198   ar
    44   211   212    1
    45   158   157    2
    46   171   173   ar
    47   212   213    1
    48   214   213    2
    49   155   156    1
    50   213   215   am
    51   180   181    1
    52   148   149    1
    53   149   152    1
    54   157   156    1
    55   218   217    2
    56   215   216    1
    57   170   172   ar
    58   173   172   ar
    59   173   174    1
    60   217   216    1
    61   156   159    1
    62   216   219    1
    63   154   152    1
    64   159   160    1
    65   181   182    1
    66   152   153    1
    67   183   182    1
    68   160   161    2
    69   160   162   am
    70   129   130    2
    71   129   128    1
    72   219   221    1
    73   219   220    1
    74   128   127    1
    75   128   131    1
    76   120   119    2
    77   127   119   am
    78   119   118    1
    79   132   131    1
    80   131   133    1
    81   118   117    1
    82   118   121    1
    83    64    63    2
    84    65    63   am
    85    63    62    1
    86    40    39    1
    87    62    59    1
    88   121   122    1
    89   123   122   ar
    90   123   125   ar
    91   138   135    1
    92    57    55   ar
    93    41    39    1
    94   134   135    1
    95   122   124   ar
    96    61    60    2
    97    39    38    1
    98    23    22    1
    99    23    24    1
   100   125   126   ar
   101    59    60    1
   102    59    58    1
   103   135   136    1
   104    22    20   am
   105    60    66   am
   106    25    24    2
   107    24    26   am
   108    55    56   ar
   109    55    54    1
   110    38    35    1
   111   124   126   ar
   112    53    52    2
   113   105   104   ar
   114   136   137    2
   115    58    52   am
   116    26    27    1
   117    52    51    1
   118    35    34    1
   119    35    36    1
   120    54    51    1
   121    20    19    1
   122    20    21    2
   123    66    67    1
   124    27    30    1
   125    27    28    1
   126    73    75   ar
   127    73    71   ar
   128   104   106   ar
   129   104   103    1
   130    19    18    1
   131    51    50    1
   132    75    76   ar
   133    67    70    1
   134    67    68    1
   135    30    31    1
   136    37    36    2
   137    70    71    1
   138    32    31    1
   139    71    72   ar
   140   103   100    1
   141    31    33    1
   142    28    29    2
   143   100    99    1
   144   100   101    1
   145    50    44   am
   146   139   140    1
   147    18    12   am
   148    76    74   ar
   149    68    77   am
   150    68    69    2
   151    77    78    1
   152    13    12    2
   153    12    11    1
   154    72    74   ar
   155   101   102    2
   156    81    78    1
   157    81    82    1
   158   142   141    2
   159    44    45    2
   160    44    43    1
   161   140   141    1
   162   140   143    1
   163    78    79    1
   164   116   115   ar
   165   116   114   ar
   166    14    11    1
   167    14    15    1
   168    80    79    2
   169   115   113   ar
   170    11    10    1
   171    43    46    1
   172    43    42    1
   173    83    82   ar
   174    83    85   ar
   175    82    84   ar
   176    46    47    1
   177   143   144    1
   178   144   145    1
   179   114   112   ar
   180    15    16    2
   181    15    17   am
   182     9     7   ar
   183    48    47    2
   184   113   112   ar
   185    47    49   am
   186    85    87   ar
   187    84    86   ar
   188   112   111    1
   189   107   108    1
   190     8     7   ar
   191     7     6    1
   192   145   146   ar
   193   145   147   ar
   194    87    86   ar
   195     5     6    1
   196     5     2    1
   197   111   108    1
   198     4     3    2
   199   108   109    1
   200    98    96    1
   201     3     2    1
   202     2     1    1
   203   109   110    2
   204    96    97    1
   205    96    95    2
   206    95    94    1
   207    94    93    1
   208    93    92    1
   209    92    89    1
   210    89    90    1
   211    89    88    1
   212    91    90    2
