@<TRIPOS>MOLECULE
tmp/2qrqA00.pdb
 182 172 0 0 0
SMALL
GASTEIGER

@<TRIPOS>ATOM
      1  N         32.5560   19.9850   38.6650 N.3    79  GLU79      -0.1245
      2  CA        31.2380   20.4680   38.2650 C.3    79  GLU79       0.1567
      3  C         30.2520   19.3350   38.0050 C.2    79  GLU79       0.2260
      4  O         30.5550   18.3920   37.2770 O.2    79  GLU79      -0.2867
      5  CB        31.3430   21.3360   37.0130 C.3    79  GLU79       0.0388
      6  CG        32.0400   22.6680   37.2220 C.3    79  GLU79       0.1160
      7  CD        31.9640   23.5670   36.0090 C.2    79  GLU79       0.3649
      8  OE1       32.8770   24.4020   35.8340 O.co2  79  GLU79      -0.2457
      9  OE2       30.9920   23.4440   35.2340 O.co2  79  GLU79      -0.2457
     10  N         28.9230   25.2140   35.4380 N.3   124  ASN124     -0.1225
     11  CA        28.9050   26.4280   34.6350 C.3   124  ASN124      0.1785
     12  C         28.1180   26.2950   33.3470 C.2   124  ASN124      0.2598
     13  O         27.4460   27.2350   32.9220 O.2   124  ASN124     -0.2718
     14  CB        30.3340   26.8400   34.2990 C.3   124  ASN124      0.1169
     15  CG        30.9830   27.6080   35.4150 C.2   124  ASN124      0.2627
     16  OD1       30.5520   28.7110   35.7390 O.2   124  ASN124     -0.2716
     17  ND2       32.0270   27.0330   36.0160 N.am  124  ASN124     -0.0877
     18  N         28.2220   25.1310   32.7200 N.am  125  GLY125     -0.1942
     19  CA        27.6100   24.9170   31.4190 C.3   125  GLY125      0.2014
     20  C         27.8420   23.5080   30.9340 C.2   125  GLY125      0.2639
     21  O         27.5250   22.5460   31.6380 O.2   125  GLY125     -0.2714
     22  N         28.4150   23.4030   29.7370 N.am  126  GLY126     -0.1939
     23  CA        28.5690   22.1320   29.0270 C.3   126  GLY126      0.2014
     24  C         29.3210   21.0410   29.7640 C.2   126  GLY126      0.2638
     25  O         28.9010   19.8840   29.7500 O.2   126  GLY126     -0.2714
     26  N         30.4380   21.4050   30.3940 N.am  127  LEU127     -0.1977
     27  CA        31.2680   20.4370   31.1190 C.3   127  LEU127      0.1596
     28  C         30.5350   19.8710   32.3340 C.2   127  LEU127      0.2287
     29  O         30.5380   18.6570   32.5590 O.2   127  LEU127     -0.2864
     30  CB        32.6040   21.0720   31.5340 C.3   127  LEU127      0.0297
     31  CG        33.6500   20.2050   32.2490 C.3   127  LEU127      0.0022
     32  CD1       35.0570   20.6020   31.8260 C.3   127  LEU127      0.0001
     33  CD2       33.5090   20.3080   33.7610 C.3   127  LEU127      0.0001
     34  N         27.6010   17.8040   31.0740 N.3   130  LEU130     -0.1245
     35  CA        28.0980   16.5190   30.5760 C.3   130  LEU130      0.1561
     36  C         28.2650   15.5090   31.7130 C.2   130  LEU130      0.2260
     37  O         27.8760   14.3540   31.5800 O.2   130  LEU130     -0.2867
     38  CB        29.4240   16.6810   29.8260 C.3   130  LEU130      0.0270
     39  CG        29.9210   15.4450   29.0720 C.3   130  LEU130      0.0019
     40  CD1       29.1400   15.2530   27.7760 C.3   130  LEU130      0.0001
     41  CD2       31.4180   15.5570   28.8080 C.3   130  LEU130      0.0001
     42  N         34.0430   31.3330   36.2620 N.3   264  ASN264     -0.1225
     43  CA        34.7830   31.5760   35.0280 C.3   264  ASN264      0.1785
     44  C         35.1360   30.2820   34.3030 C.2   264  ASN264      0.2597
     45  O         36.0110   29.5310   34.7380 O.2   264  ASN264     -0.2718
     46  CB        36.0210   32.4480   35.2550 C.3   264  ASN264      0.1169
     47  CG        36.5400   33.0600   33.9610 C.2   264  ASN264      0.2627
     48  OD1       36.6070   32.3910   32.9270 O.2   264  ASN264     -0.2716
     49  ND2       36.8980   34.3360   34.0090 N.am  264  ASN264     -0.0877
     50  N         34.4460   30.0400   33.1900 N.am  265  ASP265     -0.1974
     51  CA        34.6320   28.8200   32.4080 C.3   265  ASP265      0.1709
     52  C         35.3990   29.0370   31.0930 C.2   265  ASP265      0.2293
     53  O         35.3400   28.1960   30.1910 O.2   265  ASP265     -0.2864
     54  CB        33.2750   28.1520   32.1400 C.3   265  ASP265      0.1436
     55  CG        32.3700   28.9810   31.2470 C.2   265  ASP265      0.3671
     56  OD1       32.4400   30.2290   31.2910 O.co2 265  ASP265     -0.2456
     57  OD2       31.5690   28.3750   30.5070 O.co2 265  ASP265     -0.2456
     58  N         40.7210   27.9900   44.4290 N.3   274  ARG274     -0.1245
     59  CA        40.3810   26.9790   43.4210 C.3   274  ARG274      0.1563
     60  C         41.2970   25.7550   43.5250 C.2   274  ARG274      0.2260
     61  O         40.8330   24.6170   43.4380 O.2   274  ARG274     -0.2867
     62  CB        40.4070   27.5890   42.0100 C.3   274  ARG274      0.0307
     63  CG        40.2880   26.5920   40.8570 C.3   274  ARG274      0.0489
     64  CD        38.9350   25.8740   40.8140 C.3   274  ARG274      0.2205
     65  NE        38.8320   25.0500   39.6120 N.pl3 274  ARG274     -0.0865
     66  CZ        37.6960   24.7430   38.9910 C.cat 274  ARG274      0.5346
     67  NH1       36.5340   25.1840   39.4540 N.pl3 274  ARG274      0.1354
     68  NH2       37.7260   23.9970   37.8920 N.pl3 274  ARG274      0.1354
     69  N         38.4580   16.9190   32.6150 N.3   312  ASP312     -0.1239
     70  CA        39.4730   17.9560   32.3990 C.3   312  ASP312      0.1674
     71  C         40.6090   17.8550   33.4280 C.2   312  ASP312      0.2266
     72  O         40.7460   16.8340   34.1100 O.2   312  ASP312     -0.2867
     73  CB        38.8550   19.3610   32.3420 C.3   312  ASP312      0.1410
     74  CG        39.5590   20.2520   31.3410 C.2   312  ASP312      0.3668
     75  OD1       39.0600   20.3780   30.2030 O.co2 312  ASP312     -0.2456
     76  OD2       40.6360   20.7830   31.6700 O.co2 312  ASP312     -0.2456
     77  N         41.0040   19.6110   36.0930 N.3   314  HIS314     -0.1241
     78  CA        40.6050   20.1260   37.4070 C.3   314  HIS314      0.1621
     79  C         40.8960   19.1480   38.5550 C.2   314  HIS314      0.2264
     80  O         41.3820   19.5620   39.6070 O.2   314  HIS314     -0.2867
     81  CB        39.1490   20.6050   37.3910 C.3   314  HIS314      0.0745
     82  CG        38.7990   21.4180   36.1830 C.ar  314  HIS314      0.0817
     83  ND1       37.5170   21.4970   35.6860 N.ar  314  HIS314     -0.2268
     84  CD2       39.5690   22.1690   35.3580 C.ar  314  HIS314      0.1154
     85  CE1       37.5090   22.2670   34.6130 C.ar  314  HIS314      0.1986
     86  NE2       38.7430   22.6880   34.3930 N.ar  314  HIS314     -0.2212
     87  N         38.7550   19.0680   27.3650 N.3   350  HIS350     -0.1226
     88  CA        37.5330   19.7710   26.9370 C.3   350  HIS350      0.1752
     89  C         37.7150   21.1040   26.1920 C.2   350  HIS350      0.2596
     90  O         36.7230   21.7700   25.8880 O.2   350  HIS350     -0.2718
     91  CB        36.6180   20.0360   28.1350 C.3   350  HIS350      0.0759
     92  CG        36.1290   18.8000   28.8180 C.ar  350  HIS350      0.0818
     93  ND1       34.9210   18.2110   28.5140 N.ar  350  HIS350     -0.2268
     94  CD2       36.6710   18.0580   29.8120 C.ar  350  HIS350      0.1154
     95  CE1       34.7450   17.1520   29.2830 C.ar  350  HIS350      0.1986
     96  NE2       35.7940   17.0370   30.0790 N.ar  350  HIS350     -0.2212
     97  N         38.9510   21.5160   25.9200 N.am  351  THR351     -0.1953
     98  CA        39.1780   22.7510   25.1410 C.3   351  THR351      0.1897
     99  C         40.6070   22.9100   24.6420 C.2   351  THR351      0.2313
    100  O         41.5500   22.4020   25.2520 O.2   351  THR351     -0.2863
    101  CB        38.7500   24.0430   25.9030 C.3   351  THR351      0.1794
    102  OG1       38.8530   25.1760   25.0280 O.3   351  THR351     -0.2208
    103  CG2       39.6130   24.2760   27.1350 C.3   351  THR351      0.0378
    104  N         42.4340   28.9590   28.8600 N.3   356  ALA356     -0.1245
    105  CA        41.6310   28.1050   29.7400 C.3   356  ALA356      0.1562
    106  C         42.4650   27.0380   30.4550 C.2   356  ALA356      0.2260
    107  O         42.0080   26.4380   31.4370 O.2   356  ALA356     -0.2867
    108  CB        40.5050   27.4550   28.9540 C.3   356  ALA356      0.0290
    109  N         36.5260   15.4310   22.9480 N.3   428  VAL428     -0.1245
    110  CA        35.0820   15.3010   23.1750 C.3   428  VAL428      0.1561
    111  C         34.2270   15.3870   21.9010 C.2   428  VAL428      0.2260
    112  O         32.9980   15.4110   21.9690 O.2   428  VAL428     -0.2867
    113  CB        34.5850   16.2980   24.2580 C.3   428  VAL428      0.0252
    114  CG1       35.1460   15.9190   25.6260 C.3   428  VAL428      0.0019
    115  CG2       34.9640   17.7320   23.9020 C.3   428  VAL428      0.0019
    116  N         30.8360   13.6710   22.6050 N.3   457  ASN457     -0.1240
    117  CA        29.8880   13.9580   23.6750 C.3   457  ASN457      0.1653
    118  C         28.4800   13.4870   23.3360 C.2   457  ASN457      0.2266
    119  O         28.1630   13.1730   22.1850 O.2   457  ASN457     -0.2867
    120  CB        29.8600   15.4600   23.9830 C.3   457  ASN457      0.1155
    121  CG        31.0090   15.9120   24.8760 C.2   457  ASN457      0.2627
    122  OD1       31.2470   17.1130   25.0230 O.2   457  ASN457     -0.2716
    123  ND2       31.7090   14.9690   25.4810 N.am  457  ASN457     -0.0877
    124  N         34.2270   33.5020   21.6580 N.3   546  TYR546     -0.1227
    125  CA        34.3650   32.4180   20.6800 C.3   546  TYR546      0.1736
    126  C         33.0300   31.8630   20.2040 C.2   546  TYR546      0.2595
    127  O         32.9290   31.3870   19.0780 O.2   546  TYR546     -0.2718
    128  CB        35.3070   31.3080   21.1610 C.3   546  TYR546      0.0548
    129  CG        34.7060   30.2110   22.0130 C.ar  546  TYR546     -0.0200
    130  CD1       34.0970   29.0970   21.4260 C.ar  546  TYR546     -0.0009
    131  CD2       34.7990   30.2540   23.4020 C.ar  546  TYR546     -0.0009
    132  CE1       33.5690   28.0710   22.2010 C.ar  546  TYR546      0.0417
    133  CE2       34.2730   29.2300   24.1920 C.ar  546  TYR546      0.0417
    134  CZ        33.6590   28.1420   23.5820 C.ar  546  TYR546      0.1957
    135  OH        33.1440   27.1180   24.3500 O.3   546  TYR546     -0.2866
    136  N         32.0150   31.9290   21.0640 N.am  547  LYS547     -0.1980
    137  CA        30.6710   31.4410   20.7170 C.3   547  LYS547      0.1596
    138  C         29.9240   32.4240   19.8110 C.2   547  LYS547      0.2287
    139  O         28.8870   32.0900   19.2270 O.2   547  LYS547     -0.2864
    140  CB        29.8650   31.1590   21.9840 C.3   547  LYS547      0.0298
    141  CG        30.3240   29.9210   22.7390 C.3   547  LYS547      0.0038
    142  CD        29.5900   29.8050   24.0650 C.3   547  LYS547      0.0206
    143  CE        30.1280   28.6820   24.9400 C.3   547  LYS547      0.1093
    144  NZ        29.7280   27.3180   24.4580 N.3   547  LYS547     -0.1314
    145  N         36.9970   26.2850   17.6610 N.3   644  THR644     -0.1203
    146  CA        36.9460   26.8660   19.0140 C.3   644  THR644      0.1994
    147  C         36.0390   26.1500   20.0240 C.2   644  THR644      0.2618
    148  O         36.3500   26.1260   21.2190 O.2   644  THR644     -0.2717
    149  CB        36.5940   28.3800   19.0010 C.3   644  THR644      0.1784
    150  OG1       35.2690   28.5770   18.4880 O.3   644  THR644     -0.2211
    151  CG2       37.6010   29.1800   18.1700 C.3   644  THR644      0.0376
    152  N         34.9260   25.5850   19.5520 N.am  645  GLU645     -0.1965
    153  CA        34.0280   24.8090   20.4090 C.3   645  GLU645      0.1733
    154  C         34.4380   23.3450   20.3400 C.2   645  GLU645      0.2616
    155  O         34.2790   22.7060   19.2980 O.2   645  GLU645     -0.2715
    156  CB        32.5660   24.9690   19.9620 C.3   645  GLU645      0.0429
    157  CG        31.5320   24.4330   20.9530 C.3   645  GLU645      0.1163
    158  CD        31.3430   25.3500   22.1460 C.2   645  GLU645      0.3649
    159  OE1       31.9830   25.1040   23.1900 O.co2 645  GLU645     -0.2457
    160  OE2       30.5790   26.3300   22.0290 O.co2 645  GLU645     -0.2457
    161  N         34.9700   22.8170   21.4410 N.am  646  ALA646     -0.1963
    162  CA        35.4950   21.4490   21.4500 C.3   646  ALA646      0.1728
    163  C         34.4500   20.4350   20.9820 C.2   646  ALA646      0.2617
    164  O         34.7470   19.5660   20.1600 O.2   646  ALA646     -0.2715
    165  CB        36.0470   21.0800   22.8240 C.3   646  ALA646      0.0334
    166  N         33.2260   20.5620   21.4890 N.am  647  SER647     -0.1936
    167  CA        32.1230   19.7130   21.0400 C.3   647  SER647      0.2055
    168  C         30.8210   20.4890   20.9640 C.2   647  SER647      0.2644
    169  O         30.1880   20.5590   19.9070 O.2   647  SER647     -0.2714
    170  CB        31.9480   18.5050   21.9750 C.3   647  SER647      0.2130
    171  OG        30.7140   17.8300   21.7340 O.3   647  SER647     -0.2179
    172  N         30.4330   21.0840   22.0890 N.am  648  GLY648     -0.1939
    173  CA        29.0770   21.5780   22.2580 C.3   648  GLY648      0.2014
    174  C         28.1770   20.4230   22.6550 C.2   648  GLY648      0.2639
    175  O         28.4340   19.2690   22.2970 O.2   648  GLY648     -0.2714
    176  N         27.1340   20.7280   23.4180 N.am  649  THR649     -0.1950
    177  CA        26.1220   19.7350   23.7770 C.3   649  THR649      0.1897
    178  C         24.7280   20.3250   23.6240 C.2   649  THR649      0.2313
    179  O         23.7640   19.5940   23.3950 O.2   649  THR649     -0.2863
    180  CB        26.3040   19.1980   25.2090 C.3   649  THR649      0.1794
    181  OG1       26.4780   20.2970   26.1070 O.3   649  THR649     -0.2208
    182  CG2       27.5160   18.2610   25.2950 C.3   649  THR649      0.0378
@<TRIPOS>BOND
     1   145   146    1
     2   151   149    1
     3   150   149    1
     4   149   146    1
     5   146   147    1
     6   127   126    2
     7   139   138    2
     8   155   154    2
     9   152   147   am
    10   152   153    1
    11   138   137    1
    12   169   168    2
    13   156   153    1
    14   156   157    1
    15   147   148    2
    16   164   163    2
    17   126   125    1
    18   126   136   am
    19   154   153    1
    20   154   161   am
    21   125   128    1
    22   125   124    1
    23   137   136    1
    24   137   140    1
    25   157   158    1
    26   168   167    1
    27   168   172   am
    28   163   162    1
    29   163   166   am
    30   167   166    1
    31   167   170    1
    32   128   129    1
    33   130   129   ar
    34   130   132   ar
    35   161   162    1
    36   162   165    1
    37   171   170    1
    38   111   112    2
    39   111   110    1
    40   140   141    1
    41   129   131   ar
    42   160   158   ar
    43   172   173    1
    44   158   159   ar
    45   119   118    2
    46   132   134   ar
    47   173   174    1
    48   175   174    2
    49   116   117    1
    50   174   176   am
    51   141   142    1
    52   109   110    1
    53   110   113    1
    54   118   117    1
    55   179   178    2
    56   131   133   ar
    57   176   177    1
    58   134   133   ar
    59   134   135    1
    60   178   177    1
    61   117   120    1
    62   177   180    1
    63   115   113    1
    64   120   121    1
    65   142   143    1
    66   113   114    1
    67   144   143    1
    68    99    98    1
    69    99   100    2
    70   121   122    2
    71   121   123   am
    72   102   101    1
    73    98   101    1
    74    98    97    1
    75   180   182    1
    76   180   181    1
    77    90    89    2
    78   101   103    1
    79    97    89   am
    80    89    88    1
    81    88    87    1
    82    88    91    1
    83    40    39    1
    84    91    92    1
    85    93    92   ar
    86    93    95   ar
    87    41    39    1
    88    92    94   ar
    89   104   105    1
    90   108   105    1
    91    23    22    1
    92    23    24    1
    93    39    38    1
    94    95    96   ar
    95    22    20   am
    96   105   106    1
    97    25    24    2
    98    24    26   am
    99    94    96   ar
   100    38    35    1
   101    53    52    2
   102    75    74   ar
   103    26    27    1
   104   106   107    2
   105    57    55   ar
   106    35    34    1
   107    35    36    1
   108    20    19    1
   109    20    21    2
   110    52    51    1
   111    27    30    1
   112    27    28    1
   113    55    56   ar
   114    55    54    1
   115    74    76   ar
   116    74    73    1
   117    19    18    1
   118    30    31    1
   119    37    36    2
   120    32    31    1
   121    54    51    1
   122    31    33    1
   123    28    29    2
   124    73    70    1
   125    70    69    1
   126    70    71    1
   127    51    50    1
   128    18    12   am
   129    13    12    2
   130    48    47    2
   131    50    44   am
   132    12    11    1
   133    71    72    2
   134    47    49   am
   135    47    46    1
   136    14    11    1
   137    14    15    1
   138    44    45    2
   139    44    43    1
   140    86    85   ar
   141    86    84   ar
   142    85    83   ar
   143    11    10    1
   144    43    46    1
   145    43    42    1
   146     9     7   ar
   147    84    82   ar
   148    15    16    2
   149    15    17   am
   150    83    82   ar
   151     8     7   ar
   152     7     6    1
   153    77    78    1
   154    82    81    1
   155     5     6    1
   156     5     2    1
   157     4     3    2
   158    81    78    1
   159    78    79    1
   160    68    66    1
   161     3     2    1
   162     2     1    1
   163    79    80    2
   164    66    67    1
   165    66    65    2
   166    65    64    1
   167    64    63    1
   168    63    62    1
   169    62    59    1
   170    59    60    1
   171    59    58    1
   172    61    60    2
