@<TRIPOS>MOLECULE
tmp/2qryC00.pdb
 186 184 0 0 0
SMALL
GASTEIGER

@<TRIPOS>ATOM
      1  N        -12.0420   58.2030   71.5550 N.3    17  TYR17      -0.1227
      2  CA       -10.6500   58.5560   71.7930 C.3    17  TYR17       0.1736
      3  C        -10.2960   58.3840   73.2660 C.2    17  TYR17       0.2595
      4  O        -11.1900   58.3170   74.1150 O.2    17  TYR17      -0.2718
      5  CB       -10.3620   59.9730   71.2790 C.3    17  TYR17       0.0548
      6  CG       -11.3300   61.0530   71.7110 C.ar   17  TYR17      -0.0200
      7  CD1      -11.2150   61.6550   72.9620 C.ar   17  TYR17      -0.0009
      8  CD2      -12.3390   61.5020   70.8490 C.ar   17  TYR17      -0.0009
      9  CE1      -12.0740   62.6860   73.3500 C.ar   17  TYR17       0.0417
     10  CE2      -13.2150   62.5290   71.2270 C.ar   17  TYR17       0.0417
     11  CZ       -13.0700   63.1150   72.4850 C.ar   17  TYR17       0.1957
     12  OH       -13.9170   64.1110   72.8980 O.3    17  TYR17      -0.2866
     13  N         -9.0030   58.3150   73.5770 N.am   18  ASP18      -0.1960
     14  CA        -8.5880   58.0650   74.9540 C.3    18  ASP18       0.1840
     15  C         -8.9920   59.0380   76.0420 C.2    18  ASP18       0.2622
     16  O         -9.2920   58.6010   77.1510 O.2    18  ASP18      -0.2715
     17  CB        -7.0700   57.7920   75.0480 C.3    18  ASP18       0.1450
     18  CG        -6.2120   59.0060   74.7250 C.2    18  ASP18       0.3671
     19  OD1       -6.6920   60.1550   74.8340 O.co2  18  ASP18      -0.2456
     20  OD2       -5.0290   58.8030   74.3770 O.co2  18  ASP18      -0.2456
     21  N         -9.0340   60.3370   75.7600 N.am   19  SER19      -0.1950
     22  CA        -9.4020   61.2700   76.8150 C.3    19  SER19       0.1924
     23  C        -10.8810   61.1900   77.1990 C.2    19  SER19       0.2314
     24  O        -11.2730   61.6390   78.2770 O.2    19  SER19      -0.2863
     25  CB        -9.0310   62.7060   76.4320 C.3    19  SER19       0.2116
     26  OG        -9.9000   63.2370   75.4490 O.3    19  SER19      -0.2180
     27  N        -10.0750   59.3570   84.0090 N.3    24  TRP24      -0.1241
     28  CA       -10.0990   60.7540   84.4350 C.3    24  TRP24       0.1605
     29  C        -11.0310   61.6100   83.5850 C.2    24  TRP24       0.2264
     30  O        -11.2650   62.7720   83.8940 O.2    24  TRP24      -0.2867
     31  CB        -8.6890   61.3620   84.4070 C.3    24  TRP24       0.0550
     32  CG        -7.8670   61.0110   83.2020 C.ar   24  TRP24       0.0003
     33  CD1       -7.0900   59.9010   83.0370 C.ar   24  TRP24       0.0946
     34  CD2       -7.7190   61.7860   82.0030 C.ar   24  TRP24       0.0152
     35  NE1       -6.4620   59.9370   81.8130 N.ar   24  TRP24      -0.2442
     36  CE2       -6.8320   61.0810   81.1570 C.ar   24  TRP24       0.0810
     37  CE3       -8.2490   63.0080   81.5600 C.ar   24  TRP24       0.0012
     38  CZ2       -6.4630   61.5570   79.8910 C.ar   24  TRP24       0.0191
     39  CZ3       -7.8810   63.4830   80.2990 C.ar   24  TRP24       0.0001
     40  CH2       -6.9970   62.7550   79.4830 C.ar   24  TRP24       0.0015
     41  N         -7.3650   58.3800   68.0860 N.3    49  ASP49      -0.1225
     42  CA        -7.7110   59.7740   68.2510 C.3    49  ASP49       0.1805
     43  C         -8.8020   60.0850   67.2180 C.2    49  ASP49       0.2598
     44  O         -9.0520   59.2840   66.3070 O.2    49  ASP49      -0.2718
     45  CB        -6.4760   60.6440   68.0470 C.3    49  ASP49       0.1424
     46  CG        -5.4740   60.4840   69.1680 C.2    49  ASP49       0.3668
     47  OD1       -5.8120   60.8300   70.3210 O.co2  49  ASP49      -0.2456
     48  OD2       -4.3490   60.0000   68.9080 O.co2  49  ASP49      -0.2456
     49  N         -9.4560   61.2310   67.3850 N.am   50  GLY50      -0.1957
     50  CA       -10.5310   61.6520   66.5060 C.3    50  GLY50       0.1869
     51  C        -10.5170   61.2350   65.0460 C.2    50  GLY50       0.2309
     52  O        -11.3630   60.4430   64.6070 O.2    50  GLY50      -0.2863
     53  N        -21.2540   67.4310   72.2190 N.3   110  ASP110     -0.1239
     54  CA       -20.6650   68.6150   72.8400 C.3   110  ASP110      0.1674
     55  C        -20.0140   69.4840   71.7710 C.2   110  ASP110      0.2266
     56  O        -19.9010   69.0600   70.6190 O.2   110  ASP110     -0.2867
     57  CB       -19.6630   68.2530   73.9640 C.3   110  ASP110      0.1410
     58  CG       -18.3760   67.5850   73.4610 C.2   110  ASP110      0.3668
     59  OD1      -17.9780   67.7830   72.2950 O.co2 110  ASP110     -0.2456
     60  OD2      -17.7360   66.8750   74.2650 O.co2 110  ASP110     -0.2456
     61  N         -5.5900   63.5670   64.8340 N.3   150  SER150     -0.1202
     62  CA        -6.2940   64.2850   65.8880 C.3   150  SER150      0.2020
     63  C         -7.2520   65.3600   65.3950 C.2   150  SER150      0.2619
     64  O         -6.8960   66.1610   64.5450 O.2   150  SER150     -0.2717
     65  CB        -5.2540   64.9140   66.8190 C.3   150  SER150      0.2103
     66  OG        -5.8530   65.7010   67.8240 O.3   150  SER150     -0.2182
     67  N         -8.4670   65.3850   65.9340 N.am  151  THR151     -0.1939
     68  CA        -9.4310   66.3980   65.5150 C.3   151  THR151      0.2013
     69  C         -8.9080   67.7920   65.8540 C.2   151  THR151      0.2484
     70  O         -9.0190   68.7050   65.0470 O.2   151  THR151     -0.2729
     71  CB       -10.8410   66.1540   66.1260 C.3   151  THR151      0.1807
     72  OG1      -10.7370   65.8890   67.5320 O.3   151  THR151     -0.2208
     73  CG2      -11.5110   64.9660   65.4330 C.3   151  THR151      0.0379
     74  N         -8.3270   67.9780   67.0490 N.am  152  PRO152     -0.2726
     75  CA        -7.8030   69.3110   67.3780 C.3   152  PRO152      0.1402
     76  C         -6.7390   69.6840   66.3400 C.2   152  PRO152      0.2269
     77  O         -6.6340   70.8370   65.9100 O.2   152  PRO152     -0.2865
     78  CB        -7.1880   69.1120   68.7610 C.3   152  PRO152      0.0296
     79  CG        -8.0320   68.0430   69.3530 C.3   152  PRO152      0.0237
     80  CD        -8.2320   67.0770   68.2090 C.3   152  PRO152      0.0939
     81  N         -4.1400   64.6340   71.4880 N.3   185  TRP185     -0.1227
     82  CA        -4.1740   65.7670   72.4020 C.3   185  TRP185      0.1737
     83  C         -3.6300   65.4930   73.7980 C.2   185  TRP185      0.2596
     84  O         -2.9470   66.3430   74.3760 O.2   185  TRP185     -0.2718
     85  CB        -5.6090   66.2750   72.5230 C.3   185  TRP185      0.0564
     86  CG        -5.8040   67.2950   73.6010 C.ar  185  TRP185      0.0003
     87  CD1       -5.7160   68.6510   73.4780 C.ar  185  TRP185      0.0946
     88  CD2       -6.1250   67.0350   74.9690 C.ar  185  TRP185      0.0152
     89  NE1       -5.9670   69.2560   74.6850 N.ar  185  TRP185     -0.2442
     90  CE2       -6.2210   68.2880   75.6200 C.ar  185  TRP185      0.0810
     91  CE3       -6.3450   65.8640   75.7100 C.ar  185  TRP185      0.0012
     92  CZ2       -6.5270   68.4060   76.9780 C.ar  185  TRP185      0.0191
     93  CZ3       -6.6530   65.9780   77.0630 C.ar  185  TRP185      0.0001
     94  CH2       -6.7410   67.2450   77.6830 C.ar  185  TRP185      0.0015
     95  N         -3.9430   64.3200   74.3450 N.am  186  SER186     -0.1952
     96  CA        -3.5010   63.9620   75.6930 C.3   186  SER186      0.1924
     97  C         -2.0110   64.1390   75.8820 C.2   186  SER186      0.2314
     98  O         -1.5710   64.8320   76.7980 O.2   186  SER186     -0.2863
     99  CB        -3.8880   62.5200   76.0250 C.3   186  SER186      0.2116
    100  OG        -5.2880   62.3920   76.1930 O.3   186  SER186     -0.2180
    101  N         -1.0110   67.9830   75.5850 N.3   189  TYR189     -0.1241
    102  CA        -1.3530   68.7700   76.7570 C.3   189  TYR189      0.1605
    103  C         -0.4520   68.3780   77.9250 C.2   189  TYR189      0.2264
    104  O         -0.0030   69.2360   78.6840 O.2   189  TYR189     -0.2867
    105  CB        -2.8250   68.5640   77.1150 C.3   189  TYR189      0.0534
    106  CG        -3.4280   69.7200   77.8840 C.ar  189  TYR189     -0.0201
    107  CD1       -3.4910   69.7040   79.2740 C.ar  189  TYR189     -0.0009
    108  CD2       -3.9280   70.8360   77.2130 C.ar  189  TYR189     -0.0009
    109  CE1       -4.0390   70.7740   79.9790 C.ar  189  TYR189      0.0417
    110  CE2       -4.4760   71.9080   77.9070 C.ar  189  TYR189      0.0417
    111  CZ        -4.5290   71.8680   79.2860 C.ar  189  TYR189      0.1957
    112  OH        -5.0770   72.9190   79.9690 O.3   189  TYR189     -0.2866
    113  N         -8.4060   73.9280   73.8130 N.3   203  TYR203     -0.1241
    114  CA        -9.7250   74.5500   73.7180 C.3   203  TYR203      0.1605
    115  C         -9.8910   75.7570   74.6310 C.2   203  TYR203      0.2264
    116  O         -9.1570   75.9100   75.6070 O.2   203  TYR203     -0.2867
    117  CB       -10.8070   73.5190   74.0530 C.3   203  TYR203      0.0534
    118  CG       -10.8450   72.3380   73.1200 C.ar  203  TYR203     -0.0201
    119  CD1       -9.9160   71.2990   73.2340 C.ar  203  TYR203     -0.0009
    120  CD2      -11.8240   72.2470   72.1280 C.ar  203  TYR203     -0.0009
    121  CE1       -9.9700   70.2020   72.3920 C.ar  203  TYR203      0.0417
    122  CE2      -11.8860   71.1510   71.2760 C.ar  203  TYR203      0.0417
    123  CZ       -10.9620   70.1330   71.4130 C.ar  203  TYR203      0.1957
    124  OH       -11.0390   69.0430   70.5780 O.3   203  TYR203     -0.2866
    125  N        -10.5060   74.5950   78.1970 N.3   206  SER206     -0.1217
    126  CA        -9.5110   73.8720   78.9750 C.3   206  SER206      0.1889
    127  C         -9.2440   74.4860   80.3560 C.2   206  SER206      0.2288
    128  O         -9.1580   73.7730   81.3510 O.2   206  SER206     -0.2866
    129  CB        -8.1990   73.7760   78.1890 C.3   206  SER206      0.2089
    130  OG        -8.3690   73.0080   77.0130 O.3   206  SER206     -0.2183
    131  N        -10.9060   73.1790   83.5460 N.3   209  TYR209     -0.1241
    132  CA       -10.4550   71.9890   84.2540 C.3   209  TYR209      0.1605
    133  C         -9.6030   72.3890   85.4550 C.2   209  TYR209      0.2264
    134  O         -9.8140   71.8990   86.5680 O.2   209  TYR209     -0.2867
    135  CB        -9.6350   71.0710   83.3440 C.3   209  TYR209      0.0534
    136  CG        -8.7420   70.1380   84.1340 C.ar  209  TYR209     -0.0201
    137  CD1       -9.2830   69.1130   84.9130 C.ar  209  TYR209     -0.0009
    138  CD2       -7.3640   70.3400   84.1720 C.ar  209  TYR209     -0.0009
    139  CE1       -8.4770   68.3210   85.7140 C.ar  209  TYR209      0.0417
    140  CE2       -6.5430   69.5590   84.9720 C.ar  209  TYR209      0.0417
    141  CZ        -7.1040   68.5490   85.7460 C.ar  209  TYR209      0.1957
    142  OH        -6.2880   67.7980   86.5640 O.3   209  TYR209     -0.2866
    143  N        -15.7440   73.4690   66.8430 N.3   231  GLN231     -0.1245
    144  CA       -15.8040   72.0290   66.7420 C.3   231  GLN231      0.1566
    145  C        -17.0730   71.5460   67.4290 C.2   231  GLN231      0.2260
    146  O        -17.3850   71.9540   68.5510 O.2   231  GLN231     -0.2867
    147  CB       -14.6040   71.3390   67.4070 C.3   231  GLN231      0.0367
    148  CG       -14.7410   69.8100   67.3640 C.3   231  GLN231      0.0905
    149  CD       -13.6700   69.0660   68.1340 C.2   231  GLN231      0.2608
    150  OE1      -13.4570   69.3080   69.3240 O.2   231  GLN231     -0.2717
    151  NE2      -12.9970   68.1410   67.4590 N.am  231  GLN231     -0.0878
    152  N        -18.5100   67.9280   68.2540 N.3   233  GLU233     -0.1245
    153  CA       -18.2020   66.5070   68.2520 C.3   233  GLU233      0.1567
    154  C        -19.4720   65.6960   68.0600 C.2   233  GLU233      0.2260
    155  O        -20.5190   66.0300   68.6180 O.2   233  GLU233     -0.2867
    156  CB       -17.5230   66.1130   69.5610 C.3   233  GLU233      0.0388
    157  CG       -16.1570   66.7230   69.7440 C.3   233  GLU233      0.1160
    158  CD       -15.4220   66.0970   70.9060 C.2   233  GLU233      0.3649
    159  OE1      -15.8510   66.3080   72.0620 O.co2 233  GLU233     -0.2457
    160  OE2      -14.4240   65.3830   70.6620 O.co2 233  GLU233     -0.2457
    161  N        -16.7600   66.9520   82.6740 N.3   265  GLY265     -0.1210
    162  CA       -16.3610   65.6340   82.2300 C.3   265  GLY265      0.1956
    163  C        -15.4240   65.7250   81.0450 C.2   265  GLY265      0.2612
    164  O        -14.3000   65.2350   81.1030 O.2   265  GLY265     -0.2717
    165  N        -15.8850   66.3670   79.9740 N.am  266  ASN266     -0.1960
    166  CA       -15.0820   66.5090   78.7610 C.3   266  ASN266      0.1819
    167  C        -14.5720   67.9260   78.6080 C.2   266  ASN266      0.2621
    168  O        -13.8730   68.2270   77.6420 O.2   266  ASN266     -0.2715
    169  CB       -15.9050   66.1580   77.5220 C.3   266  ASN266      0.1195
    170  CG       -15.0880   65.4330   76.4680 C.2   266  ASN266      0.2630
    171  OD1      -15.3640   65.5330   75.2690 O.2   266  ASN266     -0.2716
    172  ND2      -14.0860   64.6880   76.9090 N.am  266  ASN266     -0.0877
    173  N        -14.9390   68.7900   79.5540 N.am  267  TRP267     -0.1974
    174  CA       -14.5220   70.1850   79.5300 C.3   267  TRP267      0.1640
    175  C        -14.8380   70.8210   78.1820 C.2   267  TRP267      0.2290
    176  O        -13.9890   71.4050   77.5210 O.2   267  TRP267     -0.2864
    177  CB       -13.0330   70.2840   79.8690 C.3   267  TRP267      0.0576
    178  CG       -12.7490   69.7010   81.2210 C.ar  267  TRP267      0.0006
    179  CD1      -12.0920   68.5300   81.4960 C.ar  267  TRP267      0.0946
    180  CD2      -13.1950   70.2160   82.4830 C.ar  267  TRP267      0.0152
    181  NE1      -12.1070   68.2850   82.8530 N.ar  267  TRP267     -0.2442
    182  CE2      -12.7780   69.3030   83.4800 C.ar  267  TRP267      0.0810
    183  CE3      -13.9090   71.3610   82.8670 C.ar  267  TRP267      0.0012
    184  CZ2      -13.0530   69.4990   84.8400 C.ar  267  TRP267      0.0191
    185  CZ3      -14.1820   71.5570   84.2200 C.ar  267  TRP267      0.0001
    186  CH2      -13.7520   70.6250   85.1900 C.ar  267  TRP267      0.0015
@<TRIPOS>BOND
     1    64    63    2
     2    52    51    2
     3    61    62    1
     4    51    50    1
     5    70    69    2
     6    63    62    1
     7    63    67   am
     8    73    71    1
     9    68    69    1
    10    68    67    1
    11    68    71    1
    12    69    74   am
    13    62    65    1
    14    77    76    2
    15    71    72    1
    16    44    43    2
    17    76    75    1
    18    50    49    1
    19   144   143    1
    20   144   147    1
    21   144   145    1
    22    65    66    1
    23    74    75    1
    24    74    80    1
    25    43    49   am
    26    43    42    1
    27   148   147    1
    28   148   149    1
    29    75    78    1
    30   145   146    2
    31   151   149   am
    32    45    42    1
    33    45    46    1
    34   154   153    1
    35   154   155    2
    36    41    42    1
    37   149   150    2
    38    80    79    1
    39   153   152    1
    40   153   156    1
    41    78    79    1
    42    48    46   ar
    43    46    47   ar
    44   156   157    1
    45   157   158    1
    46   124   123    1
    47    56    55    2
    48   160   158   ar
    49     8    10   ar
    50     8     6   ar
    51   158   159   ar
    52    10    11   ar
    53   122   123   ar
    54   122   120   ar
    55     5     6    1
    56     5     2    1
    57   123   121   ar
    58    81    82    1
    59     1     2    1
    60     6     7   ar
    61    55    54    1
    62     2     3    1
    63   120   118   ar
    64    53    54    1
    65    59    58   ar
    66   121   119   ar
    67    82    85    1
    68    82    83    1
    69    11    12    1
    70    11     9   ar
    71    85    86    1
    72    54    57    1
    73     7     9   ar
    74   118   119   ar
    75   118   117    1
    76     3    13   am
    77     3     4    2
    78    58    57    1
    79    58    60   ar
    80    87    86   ar
    81    87    89   ar
    82    13    14    1
    83    86    88   ar
    84   114   113    1
    85   114   117    1
    86   114   115    1
    87    83    95   am
    88    83    84    2
    89    95    96    1
    90    20    18   ar
    91   115   116    2
    92    89    90   ar
    93    18    19   ar
    94    18    17    1
    95    14    17    1
    96    14    15    1
    97    88    90   ar
    98    88    91   ar
    99   171   170    2
   100    26    25    1
   101   101   102    1
   102    90    92   ar
   103    96    97    1
   104    96    99    1
   105    91    93   ar
   106    21    15   am
   107    21    22    1
   108    97    98    2
   109    99   100    1
   110    15    16    2
   111    25    22    1
   112   170   172   am
   113   170   169    1
   114   102   105    1
   115   102   103    1
   116    22    23    1
   117    92    94   ar
   118   130   129    1
   119    93    94   ar
   120   105   106    1
   121    23    24    2
   122   108   106   ar
   123   108   110   ar
   124   176   175    2
   125   169   166    1
   126   168   167    2
   127   106   107   ar
   128   110   111   ar
   129   103   104    2
   130   175   174    1
   131   129   126    1
   132   125   126    1
   133   167   166    1
   134   167   173   am
   135   166   165    1
   136   126   127    1
   137   107   109   ar
   138   111   112    1
   139   111   109   ar
   140    40    38   ar
   141    40    39   ar
   142   174   173    1
   143   174   177    1
   144   177   178    1
   145    38    36   ar
   146   165   163   am
   147    39    37   ar
   148   127   128    2
   149   163   164    2
   150   163   162    1
   151    36    35   ar
   152    36    34   ar
   153   178   179   ar
   154   178   180   ar
   155   179   181   ar
   156    37    34   ar
   157    35    33   ar
   158    34    32   ar
   159   162   161    1
   160   180   183   ar
   161   180   182   ar
   162   181   182   ar
   163   183   185   ar
   164    33    32   ar
   165    32    31    1
   166   135   136    1
   167   135   132    1
   168   182   184   ar
   169   131   132    1
   170    29    30    2
   171    29    28    1
   172    27    28    1
   173   136   138   ar
   174   136   137   ar
   175   138   140   ar
   176   185   186   ar
   177   132   133    1
   178    31    28    1
   179   184   186   ar
   180   137   139   ar
   181   140   141   ar
   182   133   134    2
   183   139   141   ar
   184   141   142    1
