@<TRIPOS>MOLECULE
tmp/2qrzB00.pdb
 162 157 0 0 0
SMALL
GASTEIGER

@<TRIPOS>ATOM
      1  N         23.9490   -0.0710   15.7250 N.3    11  ASP11      -0.1225
      2  CA        23.4020   -1.4180   15.6210 C.3    11  ASP11       0.1805
      3  C         23.5400   -2.1850   16.9230 C.2    11  ASP11       0.2598
      4  O         24.2700   -1.7720   17.8230 O.2    11  ASP11      -0.2718
      5  CB        24.1260   -2.1850   14.5140 C.3    11  ASP11       0.1424
      6  CG        23.3940   -2.1290   13.1870 C.2    11  ASP11       0.3668
      7  OD1       22.7280   -1.1070   12.9040 O.co2  11  ASP11      -0.2456
      8  OD2       23.4970   -3.1120   12.4210 O.co2  11  ASP11      -0.2456
      9  N         22.8270   -3.3020   17.0170 N.am   12  GLY12      -0.1942
     10  CA        22.9150   -4.1280   18.2030 C.3    12  GLY12       0.2014
     11  C         24.1910   -4.9390   18.0880 C.2    12  GLY12       0.2639
     12  O         24.7140   -5.1100   16.9840 O.2    12  GLY12      -0.2714
     13  N         24.7040   -5.4230   19.2160 N.am   13  ALA13      -0.1963
     14  CA        25.9290   -6.2230   19.2340 C.3    13  ALA13       0.1728
     15  C         27.1950   -5.4030   18.9900 C.2    13  ALA13       0.2616
     16  O         28.3010   -5.9430   18.9880 O.2    13  ALA13      -0.2715
     17  CB        25.8300   -7.3480   18.2030 C.3    13  ALA13       0.0334
     18  N         27.0350   -4.1000   18.7860 N.am   14  VAL14      -0.1963
     19  CA        28.1780   -3.2220   18.5490 C.3    14  VAL14       0.1727
     20  C         28.9980   -3.0420   19.8220 C.2    14  VAL14       0.2617
     21  O         30.2250   -3.1540   19.8060 O.2    14  VAL14      -0.2715
     22  CB        27.7250   -1.8340   18.0600 C.3    14  VAL14       0.0290
     23  CG1       28.9230   -0.9140   17.9450 C.3    14  VAL14       0.0023
     24  CG2       27.0320   -1.9560   16.7130 C.3    14  VAL14       0.0023
     25  N         28.3130   -2.7540   20.9230 N.am   15  GLY15      -0.1940
     26  CA        29.0000   -2.5630   22.1860 C.3    15  GLY15       0.2014
     27  C         28.7980   -1.1700   22.7440 C.2    15  GLY15       0.2639
     28  O         29.6580   -0.6460   23.4520 O.2    15  GLY15      -0.2714
     29  N         27.6550   -0.5700   22.4260 N.am   16  LYS16      -0.1963
     30  CA        27.3390    0.7720   22.8940 C.3    16  LYS16       0.1728
     31  C         27.2980    0.8550   24.4190 C.2    16  LYS16       0.2617
     32  O         27.9530    1.7130   25.0200 O.2    16  LYS16      -0.2715
     33  CB        25.9990    1.2250   22.3080 C.3    16  LYS16       0.0311
     34  CG        25.9460    1.1460   20.7850 C.3    16  LYS16       0.0038
     35  CD        24.7900    1.9640   20.2030 C.3    16  LYS16       0.0206
     36  CE        23.4270    1.3880   20.5630 C.3    16  LYS16       0.1093
     37  NZ        23.2370    0.0230   20.0230 N.3    16  LYS16      -0.1314
     38  N         26.5420   -0.0440   25.0420 N.am   17  THR17      -0.1937
     39  CA        26.4120   -0.0720   26.4940 C.3    17  THR17       0.2028
     40  C         27.7110   -0.3960   27.2170 C.2    17  THR17       0.2642
     41  O         28.0160    0.2060   28.2450 O.2    17  THR17      -0.2714
     42  CB        25.3450   -1.0900   26.9220 C.3    17  THR17       0.1808
     43  OG1       24.0730   -0.6450   26.4410 O.3    17  THR17      -0.2208
     44  CG2       25.2850   -1.2280   28.4490 C.3    17  THR17       0.0379
     45  N         28.4720   -1.3510   26.6910 N.am   18  CYS18      -0.1967
     46  CA        29.7370   -1.7280   27.3080 C.3    18  CYS18       0.1712
     47  C         30.6960   -0.5590   27.2580 C.2    18  CYS18       0.2296
     48  O         31.5130   -0.3640   28.1590 O.2    18  CYS18      -0.2864
     49  CB        30.3530   -2.9280   26.5860 C.3    18  CYS18       0.0983
     50  SG        29.6260   -4.5080   27.0680 S.3    18  CYS18      -0.0798
     51  N         35.5000   -3.0910   32.3160 N.3    28  PHE28      -0.1228
     52  CA        34.6160   -3.8000   31.4010 C.3    28  PHE28       0.1721
     53  C         33.6200   -4.7010   32.1330 C.2    28  PHE28       0.2437
     54  O         33.9720   -5.3790   33.0940 O.2    28  PHE28      -0.2733
     55  CB        35.4460   -4.6400   30.4280 C.3    28  PHE28       0.0547
     56  CG        34.6500   -5.2110   29.2930 C.ar   28  PHE28      -0.0202
     57  CD1       34.1170   -4.3780   28.3170 C.ar   28  PHE28      -0.0042
     58  CD2       34.4090   -6.5780   29.2120 C.ar   28  PHE28      -0.0042
     59  CE1       33.3540   -4.8970   27.2770 C.ar   28  PHE28      -0.0003
     60  CE2       33.6470   -7.1060   28.1760 C.ar   28  PHE28      -0.0003
     61  CZ        33.1180   -6.2630   27.2070 C.ar   28  PHE28      -0.0000
     62  N         32.3540   -4.7080   31.6880 N.am   29  PRO29      -0.2729
     63  CA        31.3190   -5.5380   32.3150 C.3    29  PRO29       0.1401
     64  C         31.4000   -7.0030   31.8840 C.2    29  PRO29       0.2269
     65  O         30.9390   -7.3610   30.8010 O.2    29  PRO29      -0.2865
     66  CB        30.0140   -4.8910   31.8410 C.3    29  PRO29       0.0296
     67  CG        30.4140   -3.4950   31.4800 C.3    29  PRO29       0.0237
     68  CD        31.7390   -3.6980   30.8140 C.3    29  PRO29       0.0939
     69  N         25.9490   -7.4450   32.1880 N.3    33  VAL33      -0.1245
     70  CA        25.7550   -6.2610   31.3590 C.3    33  VAL33       0.1561
     71  C         24.2720   -5.9050   31.3500 C.2    33  VAL33       0.2260
     72  O         23.4390   -6.6840   30.8890 O.2    33  VAL33      -0.2867
     73  CB        26.2290   -6.4950   29.9090 C.3    33  VAL33       0.0252
     74  CG1       25.6990   -5.4000   29.0010 C.3    33  VAL33       0.0019
     75  CG2       27.7460   -6.5100   29.8610 C.3    33  VAL33       0.0019
     76  N         18.3890    0.6760   29.1740 N.3    37  PHE37      -0.1241
     77  CA        18.9780    1.7800   28.4230 C.3    37  PHE37       0.1605
     78  C         19.3650    2.8680   29.4250 C.2    37  PHE37       0.2264
     79  O         19.3250    4.0610   29.1240 O.2    37  PHE37      -0.2867
     80  CB        17.9630    2.3320   27.4140 C.3    37  PHE37       0.0534
     81  CG        17.2920    1.2710   26.5700 C.ar   37  PHE37      -0.0203
     82  CD1       16.1910    1.5940   25.7810 C.ar   37  PHE37      -0.0042
     83  CD2       17.7420   -0.0490   26.5790 C.ar   37  PHE37      -0.0042
     84  CE1       15.5440    0.6180   25.0190 C.ar   37  PHE37      -0.0003
     85  CE2       17.1030   -1.0310   25.8220 C.ar   37  PHE37      -0.0003
     86  CZ        16.0020   -0.6970   25.0420 C.ar   37  PHE37      -0.0000
     87  N         21.0000    3.8670   24.0490 N.3    58  THR58      -0.1203
     88  CA        19.8100    3.5430   23.2700 C.3    58  THR58       0.1994
     89  C         19.8780    2.1230   22.7260 C.2    58  THR58       0.2618
     90  O         20.9250    1.4680   22.7720 O.2    58  THR58      -0.2717
     91  CB        19.6160    4.4950   22.0610 C.3    58  THR58       0.1784
     92  OG1       20.6290    4.2390   21.0790 O.3    58  THR58      -0.2211
     93  CG2       19.6760    5.9510   22.5030 C.3    58  THR58       0.0376
     94  N         18.7460    1.6590   22.2060 N.am   59  ALA59      -0.1965
     95  CA        18.6390    0.3240   21.6390 C.3    59  ALA59       0.1728
     96  C         18.7600    0.3960   20.1220 C.2    59  ALA59       0.2617
     97  O         18.1790    1.2780   19.4890 O.2    59  ALA59      -0.2715
     98  CB        17.3150   -0.2840   22.0250 C.3    59  ALA59       0.0334
     99  N         19.5150   -0.5340   19.5460 N.am   60  GLY60      -0.1940
    100  CA        19.7000   -0.5450   18.1060 C.3    60  GLY60       0.2014
    101  C         18.7620   -1.4730   17.3600 C.2    60  GLY60       0.2638
    102  O         18.6690   -1.4120   16.1330 O.2    60  GLY60      -0.2714
    103  N         18.0660   -2.3320   18.1000 N.am   61  GLN61      -0.1977
    104  CA        17.1320   -3.2820   17.5040 C.3    61  GLN61       0.1601
    105  C         16.0100   -2.5910   16.7310 C.2    61  GLN61       0.2287
    106  O         15.4750   -1.5680   17.1610 O.2    61  GLN61      -0.2864
    107  CB        16.5410   -4.1930   18.5850 C.3    61  GLN61       0.0394
    108  CG        17.5000   -5.2610   19.1100 C.3    61  GLN61       0.0908
    109  CD        18.7000   -4.6840   19.8410 C.2    61  GLN61       0.2608
    110  OE1       18.5540   -3.9900   20.8490 O.2    61  GLN61      -0.2717
    111  NE2       19.8960   -4.9740   19.3370 N.am   61  GLN61      -0.0878
    112  N         34.0500    0.6200   17.1860 N.3   115  THR115     -0.1203
    113  CA        34.2090   -0.0950   18.4490 C.3   115  THR115      0.1994
    114  C         34.8150   -1.4850   18.3020 C.2   115  THR115      0.2617
    115  O         34.9790   -1.9920   17.1960 O.2   115  THR115     -0.2717
    116  CB        32.8630   -0.2390   19.1870 C.3   115  THR115      0.1784
    117  OG1       32.0580   -1.2230   18.5300 O.3   115  THR115     -0.2211
    118  CG2       32.1200    1.0960   19.2070 C.3   115  THR115      0.0376
    119  N         35.1490   -2.0810   19.4430 N.am  116  GLN116     -0.1979
    120  CA        35.7360   -3.4160   19.5210 C.3   116  GLN116      0.1601
    121  C         36.9830   -3.5760   18.6660 C.2   116  GLN116      0.2287
    122  O         37.1720   -4.6100   18.0330 O.2   116  GLN116     -0.2864
    123  CB        34.7080   -4.4780   19.1150 C.3   116  GLN116      0.0394
    124  CG        33.3940   -4.4180   19.8830 C.3   116  GLN116      0.0908
    125  CD        32.4730   -5.5890   19.5680 C.2   116  GLN116      0.2608
    126  OE1       31.3290   -5.6310   20.0150 O.2   116  GLN116     -0.2717
    127  NE2       32.9730   -6.5450   18.7980 N.am  116  GLN116     -0.0878
    128  N         39.6960   -4.2420   19.5480 N.3   118  ASP118     -0.1225
    129  CA        40.5690   -5.2190   20.1880 C.3   118  ASP118      0.1805
    130  C         40.4650   -6.5700   19.4880 C.2   118  ASP118      0.2597
    131  O         41.3390   -7.4250   19.6360 O.2   118  ASP118     -0.2718
    132  CB        40.1950   -5.3870   21.6670 C.3   118  ASP118      0.1424
    133  CG        38.7970   -5.9620   21.8600 C.2   118  ASP118      0.3668
    134  OD1       37.8110   -5.2290   21.6340 O.co2 118  ASP118     -0.2456
    135  OD2       38.6800   -7.1520   22.2320 O.co2 118  ASP118     -0.2456
    136  N         39.3940   -6.7460   18.7200 N.am  119  LEU119     -0.1979
    137  CA        39.1440   -7.9920   18.0060 C.3   119  LEU119      0.1596
    138  C         39.7640   -8.0900   16.6110 C.2   119  LEU119      0.2287
    139  O         39.7600   -9.1680   16.0110 O.2   119  LEU119     -0.2864
    140  CB        37.6350   -8.2320   17.8990 C.3   119  LEU119      0.0297
    141  CG        36.8490   -8.3010   19.2070 C.3   119  LEU119      0.0022
    142  CD1       35.3950   -8.6220   18.9090 C.3   119  LEU119      0.0001
    143  CD2       37.4550   -9.3590   20.1120 C.3   119  LEU119      0.0001
    144  N         38.1910    0.5800   22.2410 N.3   158  SER158     -0.1202
    145  CA        37.9680   -0.7680   22.7360 C.3   158  SER158      0.2020
    146  C         37.4620   -0.6870   24.1750 C.2   158  SER158      0.2619
    147  O         38.2400   -0.4370   25.0880 O.2   158  SER158     -0.2717
    148  CB        39.2730   -1.5590   22.7130 C.3   158  SER158      0.2103
    149  OG        39.1480   -2.7510   23.4640 O.3   158  SER158     -0.2182
    150  N         36.1650   -0.8900   24.3800 N.am  159  ALA159     -0.1965
    151  CA        35.6050   -0.8420   25.7260 C.3   159  ALA159      0.1728
    152  C         36.3080   -1.8610   26.6300 C.2   159  ALA159      0.2616
    153  O         36.2770   -1.7460   27.8560 O.2   159  ALA159     -0.2715
    154  CB        34.1100   -1.1300   25.6770 C.3   159  ALA159      0.0334
    155  N         36.9410   -2.8530   26.0080 N.am  160  LEU160     -0.1977
    156  CA        37.6540   -3.9050   26.7290 C.3   160  LEU160      0.1596
    157  C         39.0050   -3.4010   27.2220 C.2   160  LEU160      0.2287
    158  O         39.1850   -3.1380   28.4110 O.2   160  LEU160     -0.2864
    159  CB        37.8610   -5.1110   25.8100 C.3   160  LEU160      0.0297
    160  CG        38.2540   -6.4820   26.3790 C.3   160  LEU160      0.0022
    161  CD1       39.5870   -6.4080   27.1220 C.3   160  LEU160      0.0001
    162  CD2       37.1420   -6.9700   27.2920 C.3   160  LEU160      0.0001
@<TRIPOS>BOND
     1     8     6   ar
     2     7     6   ar
     3     6     5    1
     4     5     2    1
     5     2     1    1
     6     2     3    1
     7   139   138    2
     8   102   101    2
     9   138   137    1
    10    24    22    1
    11   105   106    2
    12   105   104    1
    13     3     9   am
    14     3     4    2
    15    12    11    2
    16     9    10    1
    17   112   113    1
    18   115   114    2
    19   101   103   am
    20   101   100    1
    21   104   103    1
    22   104   107    1
    23   140   137    1
    24   140   141    1
    25    23    22    1
    26   137   136    1
    27   122   121    2
    28    22    19    1
    29    11    10    1
    30    11    13   am
    31   100    99    1
    32    17    14    1
    33   114   113    1
    34   114   119   am
    35   113   116    1
    36   117   116    1
    37    19    18    1
    38    19    20    1
    39   107   108    1
    40   121   120    1
    41   136   130   am
    42    18    15   am
    43   127   125   am
    44   142   141    1
    45    16    15    2
    46    15    14    1
    47   108   109    1
    48   123   120    1
    49   123   124    1
    50   116   118    1
    51   141   143    1
    52    13    14    1
    53   111   109   am
    54   119   120    1
    55   130   131    2
    56   130   129    1
    57    97    96    2
    58    99    96   am
    59   128   129    1
    60   125   124    1
    61   125   126    2
    62    21    20    2
    63    20    25   am
    64   109   110    2
    65    37    36    1
    66    96    95    1
    67   129   132    1
    68    35    36    1
    69    35    34    1
    70    34    33    1
    71    25    26    1
    72    92    91    1
    73   134   133   ar
    74    95    98    1
    75    95    94    1
    76   132   133    1
    77   133   135   ar
    78    91    93    1
    79    91    88    1
    80    26    27    1
    81    94    89   am
    82   144   145    1
    83    33    30    1
    84    29    27   am
    85    29    30    1
    86   148   145    1
    87   148   149    1
    88    89    90    2
    89    89    88    1
    90   145   146    1
    91    27    28    2
    92    30    31    1
    93    88    87    1
    94   146   150   am
    95   146   147    2
    96   150   151    1
    97    31    32    2
    98    31    38   am
    99    84    86   ar
   100    84    82   ar
   101    38    39    1
   102    86    85   ar
   103   154   151    1
   104   151   152    1
   105    82    81   ar
   106   159   160    1
   107   159   156    1
   108    85    83   ar
   109   155   152   am
   110   155   156    1
   111   160   161    1
   112   160   162    1
   113    43    42    1
   114    39    42    1
   115    39    40    1
   116    81    83   ar
   117    81    80    1
   118    49    50    1
   119    49    46    1
   120   152   153    2
   121    45    40   am
   122    45    46    1
   123   156   157    1
   124    42    44    1
   125    61    59   ar
   126    61    60   ar
   127    40    41    2
   128   157   158    2
   129    47    46    1
   130    47    48    2
   131    59    57   ar
   132    80    77    1
   133    60    58   ar
   134    57    56   ar
   135    77    76    1
   136    77    78    1
   137    74    73    1
   138    79    78    2
   139    58    56   ar
   140    56    55    1
   141    75    73    1
   142    73    70    1
   143    55    52    1
   144    65    64    2
   145    68    67    1
   146    68    62    1
   147    72    71    2
   148    71    70    1
   149    70    69    1
   150    52    53    1
   151    52    51    1
   152    67    66    1
   153    62    53   am
   154    62    63    1
   155    66    63    1
   156    64    63    1
   157    53    54    2
