@<TRIPOS>MOLECULE
tmp/2qs3B01.pdb
 191 184 0 0 0
SMALL
GASTEIGER

@<TRIPOS>ATOM
      1  N        -44.5370   -6.9090   10.7290 N.3    10  GLU10      -0.1231
      2  CA       -45.1660   -5.8400   11.5050 C.3    10  GLU10       0.1699
      3  C        -44.0920   -4.9880   12.1530 C.2    10  GLU10       0.2592
      4  O        -43.3930   -5.4540   13.0400 O.2    10  GLU10      -0.2718
      5  CB       -46.0720   -6.4440   12.5900 C.3    10  GLU10       0.0402
      6  CG       -46.9560   -5.4250   13.2830 C.3    10  GLU10       0.1161
      7  CD       -48.1870   -5.0980   12.4630 C.2    10  GLU10       0.3649
      8  OE1      -48.1800   -4.0610   11.7810 O.co2  10  GLU10      -0.2457
      9  OE2      -49.1430   -5.9060   12.4650 O.co2  10  GLU10      -0.2457
     10  N        -43.9430   -3.7470   11.6930 N.am   11  GLU11      -0.1979
     11  CA       -42.9510   -2.8260   12.2510 C.3    11  GLU11       0.1602
     12  C        -43.3180   -2.4110   13.6840 C.2    11  GLU11       0.2287
     13  O        -44.4740   -2.0750   13.9400 O.2    11  GLU11      -0.2864
     14  CB       -42.8710   -1.5790   11.3610 C.3    11  GLU11       0.0415
     15  CG       -41.8470   -0.5540   11.7950 C.3    11  GLU11       0.1163
     16  CD       -41.8190    0.6790   10.8950 C.2    11  GLU11       0.3649
     17  OE1      -41.3220    1.7310   11.3560 O.co2  11  GLU11      -0.2457
     18  OE2      -42.2890    0.6000    9.7370 O.co2  11  GLU11      -0.2457
     19  N        -41.6550   -5.0560   15.0770 N.3    13  TYR13      -0.1241
     20  CA       -41.4790   -6.4050   15.6110 C.3    13  TYR13       0.1605
     21  C        -40.7530   -7.3490   14.6620 C.2    13  TYR13       0.2264
     22  O        -39.8740   -8.1170   15.0820 O.2    13  TYR13      -0.2867
     23  CB       -42.8490   -7.0060   15.9700 C.3    13  TYR13       0.0534
     24  CG       -43.6070   -6.1730   16.9710 C.ar   13  TYR13      -0.0201
     25  CD1      -44.5270   -5.2100   16.5550 C.ar   13  TYR13      -0.0009
     26  CD2      -43.3940   -6.3390   18.3370 C.ar   13  TYR13      -0.0009
     27  CE1      -45.2170   -4.4350   17.4800 C.ar   13  TYR13       0.0417
     28  CE2      -44.0810   -5.5690   19.2700 C.ar   13  TYR13       0.0417
     29  CZ       -44.9860   -4.6230   18.8310 C.ar   13  TYR13       0.1957
     30  OH       -45.6510   -3.8650   19.7540 O.3    13  TYR13      -0.2866
     31  N        -53.1770  -12.7770   12.0020 N.3    58  TYR58      -0.1241
     32  CA       -52.8630  -13.1060   13.3990 C.3    58  TYR58       0.1605
     33  C        -53.5360  -14.3900   13.8450 C.2    58  TYR58       0.2264
     34  O        -52.8780  -15.3030   14.3510 O.2    58  TYR58      -0.2867
     35  CB       -53.2120  -11.9340   14.3250 C.3    58  TYR58       0.0534
     36  CG       -52.1610  -10.8490   14.2470 C.ar   58  TYR58      -0.0201
     37  CD1      -52.2100   -9.8700   13.2490 C.ar   58  TYR58      -0.0009
     38  CD2      -51.0890  -10.8310   15.1330 C.ar   58  TYR58      -0.0009
     39  CE1      -51.2290   -8.8850   13.1590 C.ar   58  TYR58       0.0417
     40  CE2      -50.0930   -9.8550   15.0430 C.ar   58  TYR58       0.0417
     41  CZ       -50.1740   -8.8860   14.0590 C.ar   58  TYR58       0.1957
     42  OH       -49.1860   -7.9290   13.9820 O.3    58  TYR58      -0.2866
     43  N        -46.4010   -9.8560   17.8650 N.3    85  PRO85      -0.2102
     44  CA       -47.2930   -9.0590   18.6990 C.3    85  PRO85       0.1504
     45  C        -48.6830   -9.6990   18.6920 C.2    85  PRO85       0.2576
     46  O        -49.6260   -9.1770   18.0790 O.2    85  PRO85      -0.2718
     47  CB       -47.2850   -7.6920   18.0070 C.3    85  PRO85       0.0282
     48  CG       -47.0270   -8.0120   16.5650 C.3    85  PRO85       0.0208
     49  CD       -46.0410   -9.1590   16.6120 C.3    85  PRO85       0.0893
     50  N        -48.7760  -10.8250   19.3930 N.am   86  LEU86      -0.1966
     51  CA       -49.9600  -11.6870   19.3950 C.3    86  LEU86       0.1728
     52  C        -50.5900  -11.6490   20.7730 C.2    86  LEU86       0.2616
     53  O        -49.9800  -12.0650   21.7510 O.2    86  LEU86      -0.2715
     54  CB       -49.5650  -13.1290   19.0170 C.3    86  LEU86       0.0311
     55  CG       -50.6920  -14.1800   18.9290 C.3    86  LEU86       0.0022
     56  CD1      -51.5970  -13.9030   17.7330 C.3    86  LEU86       0.0001
     57  CD2      -50.0870  -15.5850   18.8420 C.3    86  LEU86       0.0001
     58  N        -51.8250  -11.1550   20.8470 N.am   87  THR87      -0.1951
     59  CA       -52.4570  -10.9080   22.1380 C.3    87  THR87       0.1897
     60  C        -52.9600  -12.1850   22.7820 C.2    87  THR87       0.2313
     61  O        -53.6010  -13.0100   22.1210 O.2    87  THR87      -0.2863
     62  CB       -53.6340   -9.9250   22.0100 C.3    87  THR87       0.1794
     63  OG1      -53.1510   -8.7020   21.4530 O.3    87  THR87      -0.2208
     64  CG2      -54.2230   -9.6170   23.3780 C.3    87  THR87       0.0378
     65  N        -58.4390  -17.5490   22.3370 N.3    92  ARG92      -0.1245
     66  CA       -57.2370  -18.1890   21.8300 C.3    92  ARG92       0.1563
     67  C        -56.6890  -19.2330   22.8020 C.2    92  ARG92       0.2260
     68  O        -56.2080  -20.2860   22.3710 O.2    92  ARG92      -0.2867
     69  CB       -56.1750  -17.1440   21.4730 C.3    92  ARG92       0.0307
     70  CG       -56.4940  -16.3910   20.1770 C.3    92  ARG92       0.0489
     71  CD       -55.5070  -15.2560   19.9720 C.3    92  ARG92       0.2205
     72  NE       -55.7320  -14.5500   18.7030 N.pl3  92  ARG92      -0.0865
     73  CZ       -55.2220  -13.3480   18.4170 C.cat  92  ARG92       0.5346
     74  NH1      -54.4890  -12.6960   19.3060 N.pl3  92  ARG92       0.1354
     75  NH2      -55.4620  -12.7820   17.2380 N.pl3  92  ARG92       0.1354
     76  N        -59.5650    2.9150   14.6140 N.3   134  VAL134     -0.1231
     77  CA       -59.5360    2.1950   13.3450 C.3   134  VAL134      0.1692
     78  C        -60.7730    1.3010   13.2710 C.2   134  VAL134      0.2591
     79  O        -61.0840    0.5820   14.2190 O.2   134  VAL134     -0.2718
     80  CB       -58.2480    1.3470   13.1910 C.3   134  VAL134      0.0266
     81  CG1      -58.2930    0.5010   11.9210 C.3   134  VAL134      0.0020
     82  CG2      -57.0100    2.2370   13.1950 C.3   134  VAL134      0.0020
     83  N        -61.4850    1.3750   12.1510 N.am  135  ARG135     -0.1980
     84  CA       -62.7170    0.6160   11.9650 C.3   135  ARG135      0.1597
     85  C        -62.4680   -0.8890   12.0570 C.2   135  ARG135      0.2287
     86  O        -61.5360   -1.4080   11.4410 O.2   135  ARG135     -0.2864
     87  CB       -63.3640    0.9710   10.6210 C.3   135  ARG135      0.0334
     88  CG       -64.7960    0.4790   10.4680 C.3   135  ARG135      0.0492
     89  CD       -65.3350    0.7260    9.0660 C.3   135  ARG135      0.2205
     90  NE       -65.7020    2.1240    8.8470 N.pl3 135  ARG135     -0.0865
     91  CZ       -64.9790    3.0010    8.1520 C.cat 135  ARG135      0.5346
     92  NH1      -63.8270    2.6420    7.5950 N.pl3 135  ARG135      0.1354
     93  NH2      -65.4140    4.2480    8.0090 N.pl3 135  ARG135      0.1354
     94  N        -61.2450   -2.8080   14.2340 N.3   137  GLY137     -0.1210
     95  CA       -60.0550   -3.2630   14.9470 C.3   137  GLY137      0.1956
     96  C        -60.3730   -3.5990   16.3930 C.2   137  GLY137      0.2613
     97  O        -61.5100   -3.4240   16.8450 O.2   137  GLY137     -0.2717
     98  N        -59.3660   -4.0700   17.1210 N.am  138  SER138     -0.1938
     99  CA       -59.5330   -4.4550   18.5190 C.3   138  SER138      0.2055
    100  C        -59.9730   -3.2930   19.4070 C.2   138  SER138      0.2644
    101  O        -60.7650   -3.4830   20.3330 O.2   138  SER138     -0.2714
    102  CB       -58.2460   -5.0820   19.0610 C.3   138  SER138      0.2130
    103  OG       -57.1470   -4.1970   18.9300 O.3   138  SER138     -0.2179
    104  N        -59.4660   -2.0950   19.1160 N.am  139  THR139     -0.1936
    105  CA       -59.7810   -0.9010   19.9090 C.3   139  THR139      0.2028
    106  C        -61.2280   -0.4510   19.7140 C.2   139  THR139      0.2642
    107  O        -61.9190   -0.1490   20.6900 O.2   139  THR139     -0.2714
    108  CB       -58.7850    0.2510   19.6320 C.3   139  THR139      0.1808
    109  OG1      -57.4670   -0.1640   20.0150 O.3   139  THR139     -0.2208
    110  CG2      -59.1530    1.5100   20.4080 C.3   139  THR139      0.0379
    111  N        -61.6890   -0.4290   18.4650 N.am  140  MET140     -0.1976
    112  CA       -63.0880   -0.1040   18.1790 C.3   140  MET140      0.1605
    113  C        -64.0170   -1.0870   18.8910 C.2   140  MET140      0.2287
    114  O        -65.0230   -0.6880   19.4870 O.2   140  MET140     -0.2864
    115  CB       -63.3690   -0.1210   16.6720 C.3   140  MET140      0.0413
    116  CG       -64.7470    0.4410   16.3040 C.3   140  MET140      0.0598
    117  SD       -65.5330   -0.3490   14.8850 S.3   140  MET140     -0.1393
    118  CE       -65.9290   -1.9690   15.5460 C.3   140  MET140      0.0692
    119  N        -59.8470    3.9600    8.2640 N.3   168  LYS168     -0.1231
    120  CA       -59.5830    2.6970    7.5670 C.3   168  LYS168      0.1693
    121  C        -58.4570    1.8820    8.2100 C.2   168  LYS168      0.2592
    122  O        -58.5890    0.6690    8.3970 O.2   168  LYS168     -0.2718
    123  CB       -59.2800    2.9550    6.0840 C.3   168  LYS168      0.0285
    124  CG       -59.2120    1.6960    5.2220 C.3   168  LYS168      0.0035
    125  CD       -59.0920    2.0250    3.7380 C.3   168  LYS168      0.0206
    126  CE       -57.6790    2.4510    3.3580 C.3   168  LYS168      0.1093
    127  NZ       -57.5710    2.7610    1.9060 N.3   168  LYS168     -0.1314
    128  N        -57.3550    2.5550    8.5350 N.am  169  ASN169     -0.1960
    129  CA       -56.1950    1.9180    9.1630 C.3   169  ASN169      0.1819
    130  C        -55.4360    2.8790   10.0760 C.2   169  ASN169      0.2622
    131  O        -55.7700    4.0660   10.1510 O.2   169  ASN169     -0.2715
    132  CB       -55.2580    1.3080    8.1070 C.3   169  ASN169      0.1195
    133  CG       -54.9010    2.2840    6.9980 C.2   169  ASN169      0.2630
    134  OD1      -54.4240    3.3920    7.2500 O.2   169  ASN169     -0.2716
    135  ND2      -55.1210    1.8660    5.7580 N.am  169  ASN169     -0.0877
    136  N        -54.4220    2.3580   10.7680 N.am  170  SER170     -0.1950
    137  CA       -53.6130    3.1510   11.6980 C.3   170  SER170      0.1924
    138  C        -52.9180    4.3350   11.0230 C.2   170  SER170      0.2314
    139  O        -52.8150    5.4100   11.6160 O.2   170  SER170     -0.2863
    140  CB       -52.5860    2.2670   12.4140 C.3   170  SER170      0.2116
    141  OG       -53.2220    1.3610   13.3020 O.3   170  SER170     -0.2180
    142  N        -57.8110    6.8060   19.3250 N.3   185  LEU185     -0.1231
    143  CA       -57.7200    5.7580   20.3360 C.3   185  LEU185      0.1693
    144  C        -56.9680    4.5800   19.7410 C.2   185  LEU185      0.2595
    145  O        -57.4130    3.9820   18.7560 O.2   185  LEU185     -0.2718
    146  CB       -59.1120    5.3180   20.8070 C.3   185  LEU185      0.0284
    147  CG       -59.9170    6.1520   21.8170 C.3   185  LEU185      0.0019
    148  CD1      -59.1880    6.2790   23.1460 C.3   185  LEU185      0.0001
    149  CD2      -60.3020    7.5240   21.2820 C.3   185  LEU185      0.0001
    150  N        -55.8230    4.2560   20.3380 N.am  186  MET186     -0.1920
    151  CA       -54.9530    3.2080   19.8160 C.3   186  MET186      0.1952
    152  C        -54.1260    2.5750   20.9490 C.2   186  MET186      0.2658
    153  O        -54.0880    3.0940   22.0690 O.2   186  MET186     -0.2711
    154  CB       -54.0970    3.7350   18.6300 C.2   186  MET186      0.0110
    155  CG       -52.6550    4.1750   18.9340 C.2   186  MET186      0.0285
    156  SD       -51.7500    5.0070   17.5900 S.3   186  MET186     -0.1125
    157  CE       -51.8530    3.8120   16.2570 C.3   186  MET186      0.0742
    158  N        -53.4810    1.4530   20.6460 N.am  187  GLU187     -0.1974
    159  CA       -52.6570    0.7280   21.6170 C.3   187  GLU187      0.1602
    160  C        -51.4350    1.5290   22.0630 C.2   187  GLU187      0.2287
    161  O        -50.7690    2.1650   21.2410 O.2   187  GLU187     -0.2864
    162  CB       -52.2230   -0.6190   21.0410 C.3   187  GLU187      0.0415
    163  CG       -53.3630   -1.6120   20.8410 C.3   187  GLU187      0.1163
    164  CD       -53.9000   -2.1820   22.1470 C.2   187  GLU187      0.3649
    165  OE1      -53.4990   -1.7070   23.2330 O.co2 187  GLU187     -0.2457
    166  OE2      -54.7320   -3.1090   22.0800 O.co2 187  GLU187     -0.2457
    167  N        -48.4530    0.7150   22.8690 N.3   189  THR189     -0.1203
    168  CA       -47.2390    0.3410   22.1360 C.3   189  THR189      0.1994
    169  C        -47.0830    1.1620   20.8540 C.2   189  THR189      0.2618
    170  O        -46.0090    1.7130   20.5880 O.2   189  THR189     -0.2717
    171  CB       -47.2420   -1.1470   21.7550 C.3   189  THR189      0.1784
    172  OG1      -48.5300   -1.4950   21.2300 O.3   189  THR189     -0.2211
    173  CG2      -46.9300   -2.0290   22.9670 C.3   189  THR189      0.0376
    174  N        -48.1580    1.2460   20.0730 N.am  190  SER190     -0.1951
    175  CA       -48.1590    2.0370   18.8370 C.3   190  SER190      0.1924
    176  C        -47.9910    3.5300   19.0860 C.2   190  SER190      0.2314
    177  O        -47.2630    4.1970   18.3490 O.2   190  SER190     -0.2863
    178  CB       -49.4290    1.7820   18.0310 C.3   190  SER190      0.2116
    179  OG       -49.5030    0.4260   17.6410 O.3   190  SER190     -0.2180
    180  N        -48.9000   -9.3930   25.0780 N.3   213  TYR213     -0.1241
    181  CA       -48.4030  -10.2140   23.9830 C.3   213  TYR213      0.1605
    182  C        -47.6500  -11.3900   24.5890 C.2   213  TYR213      0.2264
    183  O        -46.7860  -11.1970   25.4480 O.2   213  TYR213     -0.2867
    184  CB       -47.4240   -9.4320   23.1070 C.3   213  TYR213      0.0534
    185  CG       -48.0000   -8.2860   22.3200 C.ar  213  TYR213     -0.0201
    186  CD1      -47.1860   -7.2210   21.9490 C.ar  213  TYR213     -0.0009
    187  CD2      -49.3460   -8.2670   21.9180 C.ar  213  TYR213     -0.0009
    188  CE1      -47.6910   -6.1540   21.2190 C.ar  213  TYR213      0.0417
    189  CE2      -49.8580   -7.1990   21.1710 C.ar  213  TYR213      0.0417
    190  CZ       -49.0150   -6.1510   20.8250 C.ar  213  TYR213      0.1957
    191  OH       -49.4920   -5.0870   20.0850 O.3   213  TYR213     -0.2866
@<TRIPOS>BOND
     1   127   126    1
     2   126   125    1
     3   125   124    1
     4   124   123    1
     5   135   133   am
     6   123   120    1
     7   133   134    2
     8   133   132    1
     9   120   121    1
    10   120   119    1
    11    92    91    1
    12    93    91    1
    13   132   129    1
    14    91    90    2
    15   121   122    2
    16   121   128   am
    17   128   129    1
    18    90    89    1
    19    89    88    1
    20   129   130    1
    21    18    16   ar
    22   130   131    2
    23   130   136   am
    24    88    87    1
    25    87    84    1
    26     1     2    1
    27   136   137    1
    28    16    17   ar
    29    16    15    1
    30   138   139    2
    31   138   137    1
    32    14    15    1
    33    14    11    1
    34    86    85    2
    35     2     3    1
    36     2     5    1
    37    10     3   am
    38    10    11    1
    39   137   140    1
    40     8     7   ar
    41    81    80    1
    42    84    85    1
    43    84    83    1
    44    31    32    1
    45    83    78   am
    46     3     4    2
    47    11    12    1
    48   140   141    1
    49     7     9   ar
    50     7     6    1
    51     5     6    1
    52    39    37   ar
    53    39    41   ar
    54    80    82    1
    55    80    77    1
    56    37    36   ar
    57    78    77    1
    58    78    79    2
    59    77    76    1
    60    32    33    1
    61    32    35    1
    62    12    13    2
    63    33    34    2
    64    42    41    1
    65    41    40   ar
    66    94    95    1
    67    36    35    1
    68    36    38   ar
    69    21    22    2
    70    21    20    1
    71   117   118    1
    72   117   116    1
    73    95    96    1
    74    40    38   ar
    75    19    20    1
    76    20    23    1
    77    23    24    1
    78   157   156    1
    79   116   115    1
    80    96    97    2
    81    96    98   am
    82    25    24   ar
    83    25    27   ar
    84    48    49    1
    85    48    47    1
    86    49    43    1
    87   115   112    1
    88    24    26   ar
    89    98    99    1
    90    75    73    1
    91    27    29   ar
    92   156   155    1
    93   179   178    1
    94    56    55    1
    95    43    44    1
    96    47    44    1
    97   178   175    1
    98    46    45    2
    99   112   111    1
   100   112   113    1
   101    26    28   ar
   102   177   176    2
   103    73    72    2
   104    73    74    1
   105   111   106   am
   106    99   102    1
   107    99   100    1
   108   154   155    2
   109   154   151    1
   110    45    44    1
   111    45    50   am
   112    72    71    1
   113   145   144    2
   114    29    28   ar
   115    29    30    1
   116   175   176    1
   117   175   174    1
   118    57    55    1
   119   113   114    2
   120    55    54    1
   121   103   102    1
   122    54    51    1
   123   104   100   am
   124   104   105    1
   125   142   143    1
   126    50    51    1
   127    51    52    1
   128   100   101    2
   129   108   105    1
   130   108   109    1
   131   108   110    1
   132   106   105    1
   133   106   107    2
   134   144   143    1
   135   144   150   am
   136   151   150    1
   137   151   152    1
   138    71    70    1
   139   174   169   am
   140   191   190    1
   141    70    69    1
   142   143   146    1
   143   170   169    2
   144   158   152   am
   145   158   159    1
   146    52    58   am
   147    52    53    2
   148   146   147    1
   149   190   189   ar
   150   190   188   ar
   151   163   162    1
   152   163   164    1
   153    58    59    1
   154   169   168    1
   155   152   153    2
   156   162   159    1
   157   189   187   ar
   158   188   186   ar
   159   172   171    1
   160   161   160    2
   161   149   147    1
   162    63    62    1
   163    69    66    1
   164   159   160    1
   165   171   168    1
   166   171   173    1
   167   147   148    1
   168    66    65    1
   169    66    67    1
   170   187   185   ar
   171   186   185   ar
   172    62    59    1
   173    62    64    1
   174   166   164   ar
   175    61    60    2
   176   168   167    1
   177    59    60    1
   178   164   165   ar
   179   185   184    1
   180    68    67    2
   181   184   181    1
   182   181   182    1
   183   181   180    1
   184   182   183    2
