@<TRIPOS>MOLECULE
tmp/2qs4D00.pdb
 154 147 0 0 0
SMALL
GASTEIGER

@<TRIPOS>ATOM
      1  N        -15.4860   36.5640  -32.1890 N.3    10  GLU10      -0.1245
      2  CA       -15.3760   35.4170  -33.0980 C.3    10  GLU10       0.1567
      3  C        -13.9640   35.4640  -33.6820 C.2    10  GLU10       0.2260
      4  O        -13.6210   36.3840  -34.4380 O.2    10  GLU10      -0.2867
      5  CB       -16.4060   35.5530  -34.2190 C.3    10  GLU10       0.0388
      6  CG       -16.4710   34.3280  -35.1980 C.3    10  GLU10       0.1160
      7  CD       -17.1880   33.1470  -34.5240 C.2    10  GLU10       0.3649
      8  OE1      -16.5330   32.1290  -34.1740 O.co2  10  GLU10      -0.2457
      9  OE2      -18.4050   33.2790  -34.2510 O.co2  10  GLU10      -0.2457
     10  N        -11.9320   37.4400  -36.3570 N.3    13  TYR13      -0.1241
     11  CA       -12.6020   38.6550  -36.8040 C.3    13  TYR13       0.1605
     12  C        -12.6610   39.7060  -35.6930 C.2    13  TYR13       0.2264
     13  O        -12.4810   40.8840  -35.9590 O.2    13  TYR13      -0.2867
     14  CB       -14.0550   38.3150  -37.1730 C.3    13  TYR13       0.0534
     15  CG       -14.1650   37.2240  -38.1800 C.ar   13  TYR13      -0.0201
     16  CD1      -14.2660   35.8760  -37.7670 C.ar   13  TYR13      -0.0009
     17  CD2      -14.1190   37.4960  -39.5430 C.ar   13  TYR13      -0.0009
     18  CE1      -14.3870   34.8430  -38.7310 C.ar   13  TYR13       0.0417
     19  CE2      -14.2400   36.4600  -40.5150 C.ar   13  TYR13       0.0417
     20  CZ       -14.3470   35.1300  -40.0780 C.ar   13  TYR13       0.1957
     21  OH       -14.4210   34.0670  -40.9650 O.3    13  TYR13      -0.2866
     22  N        -25.7110   35.9340  -33.4790 N.3    58  TYR58      -0.1241
     23  CA       -25.6840   36.6010  -34.7950 C.3    58  TYR58       0.1605
     24  C        -27.0750   37.1110  -35.1830 C.2    58  TYR58       0.2264
     25  O        -27.1770   38.2770  -35.6300 O.2    58  TYR58      -0.2867
     26  CB       -25.1410   35.6380  -35.8520 C.3    58  TYR58       0.0534
     27  CG       -23.6400   35.5030  -35.7900 C.ar   58  TYR58      -0.0201
     28  CD1      -23.0350   34.6050  -34.9130 C.ar   58  TYR58      -0.0009
     29  CD2      -22.8180   36.3180  -36.5690 C.ar   58  TYR58      -0.0009
     30  CE1      -21.6440   34.4970  -34.8430 C.ar   58  TYR58       0.0417
     31  CE2      -21.4410   36.2220  -36.5040 C.ar   58  TYR58       0.0417
     32  CZ       -20.8650   35.3020  -35.6460 C.ar   58  TYR58       0.1957
     33  OH       -19.4670   35.2100  -35.5960 O.3    58  TYR58      -0.2866
     34  N        -18.6970   38.9220  -39.1020 N.3    85  PRO85      -0.2102
     35  CA       -18.9040   37.9440  -40.1800 C.3    85  PRO85       0.1504
     36  C        -20.3600   37.4930  -40.1840 C.2    85  PRO85       0.2576
     37  O        -20.6850   36.3760  -39.7810 O.2    85  PRO85      -0.2718
     38  CB       -17.9380   36.8030  -39.8000 C.3    85  PRO85       0.0282
     39  CG       -17.8380   36.8750  -38.3140 C.3    85  PRO85       0.0208
     40  CD       -17.9620   38.3510  -37.9620 C.3    85  PRO85       0.0893
     41  N        -21.2280   38.3840  -40.6750 N.am   86  LEU86      -0.1966
     42  CA       -22.6620   38.1300  -40.6550 C.3    86  LEU86       0.1728
     43  C        -23.0680   37.5950  -42.0230 C.2    86  LEU86       0.2616
     44  O        -22.9880   38.2940  -43.0400 O.2    86  LEU86      -0.2715
     45  CB       -23.3850   39.4580  -40.3800 C.3    86  LEU86       0.0311
     46  CG       -24.8970   39.3440  -40.1490 C.3    86  LEU86       0.0022
     47  CD1      -25.3000   38.4900  -39.0090 C.3    86  LEU86       0.0001
     48  CD2      -25.5350   40.8030  -40.0150 C.3    86  LEU86       0.0001
     49  N        -23.5210   36.3400  -42.0500 N.am   87  THR87      -0.1951
     50  CA       -23.8360   35.7570  -43.3540 C.3    87  THR87       0.1897
     51  C        -25.0650   36.4030  -43.9650 C.2    87  THR87       0.2313
     52  O        -26.1020   36.5930  -43.2890 O.2    87  THR87      -0.2863
     53  CB       -24.0810   34.2610  -43.1830 C.3    87  THR87       0.1794
     54  OG1      -22.8960   33.6750  -42.5930 O.3    87  THR87      -0.2208
     55  CG2      -24.3540   33.5810  -44.5490 C.3    87  THR87       0.0378
     56  N        -32.7430   36.8560  -43.4820 N.3    92  ARG92      -0.1245
     57  CA       -32.2610   38.1080  -42.8770 C.3    92  ARG92       0.1563
     58  C        -32.5640   39.2920  -43.7730 C.2    92  ARG92       0.2260
     59  O        -32.8270   40.3800  -43.2430 O.2    92  ARG92      -0.2867
     60  CB       -30.7720   38.0530  -42.4950 C.3    92  ARG92       0.0307
     61  CG       -30.5470   37.1050  -41.3190 C.3    92  ARG92       0.0489
     62  CD       -29.0440   36.8850  -41.1470 C.3    92  ARG92       0.2205
     63  NE       -28.8020   36.0760  -39.9520 N.pl3  92  ARG92      -0.0865
     64  CZ       -27.6240   35.5000  -39.7200 C.cat  92  ARG92       0.5346
     65  NH1      -26.6390   35.6340  -40.6140 N.pl3  92  ARG92       0.1354
     66  NH2      -27.4110   34.8320  -38.5980 N.pl3  92  ARG92       0.1354
     67  N        -20.3910   20.9550  -35.9900 N.3   134  VAL134     -0.1245
     68  CA       -20.6580   21.5210  -34.6640 C.3   134  VAL134      0.1561
     69  C        -22.1730   21.6490  -34.4300 C.2   134  VAL134      0.2260
     70  O        -22.9030   22.2970  -35.2070 O.2   134  VAL134     -0.2867
     71  CB       -19.9860   22.8750  -34.4880 C.3   134  VAL134      0.0252
     72  CG1      -20.3500   23.4500  -33.1160 C.3   134  VAL134      0.0019
     73  CG2      -18.4550   22.7390  -34.6160 C.3   134  VAL134      0.0019
     74  N        -24.6480   24.7670  -34.9750 N.3   137  GLY137     -0.1210
     75  CA       -23.9380   25.8140  -35.6990 C.3   137  GLY137      0.1956
     76  C        -24.5050   26.0310  -37.0760 C.2   137  GLY137      0.2613
     77  O        -25.4920   25.3960  -37.4650 O.2   137  GLY137     -0.2717
     78  N        -23.8790   26.9350  -37.8410 N.am  138  SER138     -0.1938
     79  CA       -24.4420   27.2890  -39.1430 C.3   138  SER138      0.2055
     80  C        -24.4260   26.1040  -40.0810 C.2   138  SER138      0.2644
     81  O        -25.4240   25.8390  -40.7510 O.2   138  SER138     -0.2714
     82  CB       -23.7160   28.4890  -39.7600 C.3   138  SER138      0.2130
     83  OG       -22.3190   28.2780  -39.7140 O.3   138  SER138     -0.2179
     84  N        -23.3000   25.3820  -40.1160 N.am  139  THR139     -0.1936
     85  CA       -23.1790   24.2500  -41.0420 C.3   139  THR139      0.2028
     86  C        -24.2030   23.1490  -40.6750 C.2   139  THR139      0.2642
     87  O        -24.8710   22.6080  -41.5700 O.2   139  THR139     -0.2714
     88  CB       -21.7420   23.7270  -41.0480 C.3   139  THR139      0.1808
     89  OG1      -20.9300   24.7310  -41.6520 O.3   139  THR139     -0.2208
     90  CG2      -21.6440   22.4380  -41.8990 C.3   139  THR139      0.0379
     91  N        -24.3490   22.8650  -39.3720 N.am  140  MET140     -0.1976
     92  CA       -25.3450   21.8600  -38.9800 C.3   140  MET140      0.1605
     93  C        -26.7210   22.3000  -39.4580 C.2   140  MET140      0.2287
     94  O        -27.4730   21.4820  -39.9730 O.2   140  MET140     -0.2864
     95  CB       -25.3490   21.6530  -37.4500 C.3   140  MET140      0.0413
     96  CG       -26.1070   20.3590  -37.0700 C.3   140  MET140      0.0598
     97  SD       -27.1270   20.5340  -35.6050 S.3   140  MET140     -0.1393
     98  CE       -28.3960   21.5820  -36.3290 C.3   140  MET140      0.0692
     99  N        -16.0740   23.9310  -31.9870 N.3   170  SER170     -0.1217
    100  CA       -15.0430   23.7010  -33.0050 C.3   170  SER170      0.1889
    101  C        -13.7590   23.0910  -32.4330 C.2   170  SER170      0.2288
    102  O        -13.1300   22.2540  -33.1050 O.2   170  SER170     -0.2866
    103  CB       -14.7230   24.9810  -33.7650 C.3   170  SER170      0.2089
    104  OG       -14.3060   25.9570  -32.8260 O.3   170  SER170     -0.2183
    105  N        -17.4730   18.8440  -41.1430 N.3   185  LEU185     -0.1231
    106  CA       -18.0490   19.7680  -42.1260 C.3   185  LEU185      0.1693
    107  C        -18.1060   21.1330  -41.4140 C.2   185  LEU185      0.2592
    108  O        -18.5940   21.2620  -40.2800 O.2   185  LEU185     -0.2718
    109  CB       -19.4610   19.3140  -42.5250 C.3   185  LEU185      0.0284
    110  CG       -19.5760   18.2160  -43.5860 C.3   185  LEU185      0.0019
    111  CD1      -19.2690   18.6820  -45.0060 C.3   185  LEU185      0.0001
    112  CD2      -18.7730   17.0050  -43.1740 C.3   185  LEU185      0.0001
    113  N        -17.5930   22.1590  -42.0880 N.am  186  MET186     -0.1965
    114  CA       -17.3370   23.4340  -41.4340 C.3   186  MET186      0.1736
    115  C        -17.2930   24.5700  -42.4750 C.2   186  MET186      0.2616
    116  O        -16.9800   24.3330  -43.6390 O.2   186  MET186     -0.2715
    117  CB       -15.9680   23.3120  -40.7110 C.3   186  MET186      0.0427
    118  CG       -15.4860   24.5660  -40.0020 C.3   186  MET186      0.0599
    119  SD       -13.9780   24.2230  -39.0750 S.3   186  MET186     -0.1393
    120  CE       -14.5750   24.2750  -37.3930 C.3   186  MET186      0.0692
    121  N        -17.5890   25.8060  -42.0630 N.am  187  GLU187     -0.1977
    122  CA       -17.4130   26.9270  -42.9970 C.3   187  GLU187      0.1602
    123  C        -15.9690   27.0230  -43.4380 C.2   187  GLU187      0.2287
    124  O        -15.0620   26.7940  -42.5870 O.2   187  GLU187     -0.2864
    125  CB       -17.9070   28.2900  -42.4110 C.3   187  GLU187      0.0415
    126  CG       -19.4350   28.3280  -42.6000 C.3   187  GLU187      0.1163
    127  CD       -20.1230   29.6180  -42.1910 C.2   187  GLU187      0.3649
    128  OE1      -21.3040   29.4530  -41.8540 O.co2 187  GLU187     -0.2457
    129  OE2      -19.5970   30.7850  -42.2690 O.co2 187  GLU187     -0.2457
    130  N        -13.9980   29.4550  -44.2570 N.3   189  THR189     -0.1203
    131  CA       -13.1410   30.4420  -43.5840 C.3   189  THR189      0.1994
    132  C        -12.5660   29.8810  -42.2840 C.2   189  THR189      0.2618
    133  O        -11.4150   30.1260  -41.9180 O.2   189  THR189     -0.2717
    134  CB       -13.9800   31.6800  -43.2300 C.3   189  THR189      0.1784
    135  OG1      -15.2500   31.2460  -42.7030 O.3   189  THR189     -0.2211
    136  CG2      -14.2170   32.4790  -44.4750 C.3   189  THR189      0.0376
    137  N        -13.3910   29.1350  -41.5700 N.am  190  SER190     -0.1951
    138  CA       -12.9990   28.5160  -40.3090 C.3   190  SER190      0.1924
    139  C        -12.0060   27.4110  -40.5810 C.2   190  SER190      0.2314
    140  O        -11.0210   27.2650  -39.8500 O.2   190  SER190     -0.2863
    141  CB       -14.2420   27.9570  -39.5910 C.3   190  SER190      0.2116
    142  OG       -15.0970   29.0160  -39.1570 O.3   190  SER190     -0.2180
    143  N        -20.2320   37.0490  -46.3880 N.3   213  TYR213     -0.1241
    144  CA       -20.3900   37.8650  -45.1660 C.3   213  TYR213      0.1605
    145  C        -20.5230   39.3060  -45.5960 C.2   213  TYR213      0.2264
    146  O        -19.7370   39.7610  -46.4260 O.2   213  TYR213     -0.2867
    147  CB       -19.1810   37.7840  -44.2650 C.3   213  TYR213      0.0534
    148  CG       -18.8180   36.3850  -43.7510 C.ar  213  TYR213     -0.0201
    149  CD1      -17.5150   36.1130  -43.3700 C.ar  213  TYR213     -0.0009
    150  CD2      -19.7850   35.3680  -43.6290 C.ar  213  TYR213     -0.0009
    151  CE1      -17.1400   34.8630  -42.9030 C.ar  213  TYR213      0.0417
    152  CE2      -19.4260   34.0930  -43.1410 C.ar  213  TYR213      0.0417
    153  CZ       -18.0970   33.8720  -42.7870 C.ar  213  TYR213      0.1957
    154  OH       -17.7120   32.6360  -42.3190 O.3   213  TYR213     -0.2866
@<TRIPOS>BOND
     1   146   145    2
     2   143   144    1
     3   145   144    1
     4   144   147    1
     5   111   110    1
     6    55    53    1
     7   136   134    1
     8   147   148    1
     9   130   131    1
    10    51    50    1
    11    51    52    2
    12    58    59    2
    13    58    57    1
    14   148   150   ar
    15   148   149   ar
    16   116   115    2
    17   150   152   ar
    18   110   112    1
    19   110   109    1
    20   131   134    1
    21   131   132    1
    22    56    57    1
    23   123   122    1
    24   123   124    2
    25   149   151   ar
    26    50    53    1
    27    50    49    1
    28   134   135    1
    29    53    54    1
    30   152   153   ar
    31    44    43    2
    32   122   125    1
    33   122   121    1
    34   151   153   ar
    35    57    60    1
    36   153   154    1
    37   126   125    1
    38   126   127    1
    39   109   106    1
    40    60    61    1
    41   115   121   am
    42   115   114    1
    43   132   133    2
    44   132   137   am
    45   129   127   ar
    46   127   128   ar
    47   106   107    1
    48   106   105    1
    49   113   114    1
    50   113   107   am
    51    49    43   am
    52    43    42    1
    53    90    88    1
    54    89    88    1
    55    87    86    2
    56   137   138    1
    57   114   117    1
    58   107   108    2
    59    61    62    1
    60    62    63    1
    61    88    85    1
    62    85    86    1
    63    85    84    1
    64    21    20    1
    65    81    80    2
    66   117   118    1
    67    41    42    1
    68    41    36   am
    69    86    91   am
    70    42    45    1
    71    65    64    1
    72   139   138    1
    73   139   140    2
    74    19    20   ar
    75    19    17   ar
    76    45    46    1
    77   138   141    1
    78    36    35    1
    79    36    37    2
    80    35    38    1
    81    35    34    1
    82    46    48    1
    83    46    47    1
    84    84    80   am
    85    80    79    1
    86    20    18   ar
    87   118   119    1
    88    94    93    2
    89    63    64    2
    90    38    39    1
    91    82    83    1
    92    82    79    1
    93    64    66    1
    94   141   142    1
    95    17    15   ar
    96    93    92    1
    97    91    92    1
    98    79    78    1
    99    34    40    1
   100   119   120    1
   101    92    95    1
   102    18    16   ar
   103    39    40    1
   104    15    16   ar
   105    15    14    1
   106    78    76   am
   107    77    76    2
   108    95    96    1
   109    14    11    1
   110    76    75    1
   111    96    97    1
   112    11    10    1
   113    11    12    1
   114    29    31   ar
   115    29    27   ar
   116    31    32   ar
   117    98    97    1
   118    67    68    1
   119    13    12    2
   120    26    27    1
   121    26    23    1
   122    27    28   ar
   123    75    74    1
   124    32    33    1
   125    32    30   ar
   126    25    24    2
   127    70    69    2
   128     6     7    1
   129     6     5    1
   130    24    23    1
   131    28    30   ar
   132    23    22    1
   133    68    71    1
   134    68    69    1
   135    73    71    1
   136     7     9   ar
   137     7     8   ar
   138    71    72    1
   139     4     3    2
   140     5     2    1
   141   103   100    1
   142   103   104    1
   143     3     2    1
   144   102   101    2
   145     2     1    1
   146   100   101    1
   147   100    99    1
