@<TRIPOS>MOLECULE
tmp/2qs4B00.pdb
 106 101 0 0 0
SMALL
GASTEIGER

@<TRIPOS>ATOM
      1  N        -23.5010   30.0400  -75.0950 N.3    10  GLU10      -0.1245
      2  CA       -22.3790   29.4350  -74.3470 C.3    10  GLU10       0.1567
      3  C        -22.9270   28.1750  -73.6950 C.2    10  GLU10       0.2260
      4  O        -23.8260   28.2810  -72.8640 O.2    10  GLU10      -0.2867
      5  CB       -21.8950   30.3850  -73.2270 C.3    10  GLU10       0.0388
      6  CG       -20.5890   29.9150  -72.5220 C.3    10  GLU10       0.1160
      7  CD       -19.3650   30.0800  -73.4040 C.2    10  GLU10       0.3649
      8  OE1      -18.7660   29.0310  -73.8230 O.co2  10  GLU10      -0.2457
      9  OE2      -18.9890   31.2600  -73.6930 O.co2  10  GLU10      -0.2457
     10  N        -25.2070   27.1150  -70.6820 N.3    13  TYR13      -0.1241
     11  CA       -25.9640   28.2520  -70.1330 C.3    13  TYR13       0.1605
     12  C        -27.0580   28.7310  -71.1240 C.2    13  TYR13       0.2264
     13  O        -28.2000   29.0460  -70.7130 O.2    13  TYR13      -0.2867
     14  CB       -25.0230   29.4190  -69.8090 C.3    13  TYR13       0.0534
     15  CG       -23.8410   29.0190  -68.9840 C.ar   13  TYR13      -0.0201
     16  CD1      -22.6750   28.5780  -69.6140 C.ar   13  TYR13      -0.0009
     17  CD2      -23.8770   29.1060  -67.5850 C.ar   13  TYR13      -0.0009
     18  CE1      -21.5750   28.2240  -68.8890 C.ar   13  TYR13       0.0417
     19  CE2      -22.7700   28.7260  -66.8350 C.ar   13  TYR13       0.0417
     20  CZ       -21.6120   28.3010  -67.5090 C.ar   13  TYR13       0.1957
     21  OH       -20.5170   27.9080  -66.8130 O.3    13  TYR13      -0.2866
     22  N        -18.7010   39.1290  -74.5270 N.3    58  TYR58      -0.1241
     23  CA       -19.1070   39.3570  -73.1290 C.3    58  TYR58       0.1605
     24  C        -19.0040   40.8200  -72.7370 C.2    58  TYR58       0.2264
     25  O        -19.9310   41.3710  -72.1300 O.2    58  TYR58      -0.2867
     26  CB       -18.3200   38.4530  -72.1870 C.3    58  TYR58       0.0534
     27  CG       -18.7860   37.0070  -72.2010 C.ar   58  TYR58      -0.0201
     28  CD1      -18.2710   36.1030  -73.1210 C.ar   58  TYR58      -0.0009
     29  CD2      -19.7380   36.5750  -71.2840 C.ar   58  TYR58      -0.0009
     30  CE1      -18.7480   34.7880  -73.1380 C.ar   58  TYR58       0.0417
     31  CE2      -20.1840   35.2650  -71.2700 C.ar   58  TYR58       0.0417
     32  CZ       -19.6980   34.4070  -72.2060 C.ar   58  TYR58       0.1957
     33  OH       -20.1540   33.0860  -72.2240 O.3    58  TYR58      -0.2866
     34  N        -23.4250   33.7590  -68.2730 N.3    85  PRO85      -0.2102
     35  CA       -22.2890   33.5450  -67.3510 C.3    85  PRO85       0.1504
     36  C        -21.3010   34.7270  -67.4310 C.2    85  PRO85       0.2576
     37  O        -20.2080   34.6030  -68.0280 O.2    85  PRO85      -0.2718
     38  CB       -21.6830   32.2210  -67.8840 C.3    85  PRO85       0.0282
     39  CG       -21.9890   32.2380  -69.3580 C.3    85  PRO85       0.0208
     40  CD       -23.3970   32.8260  -69.4280 C.3    85  PRO85       0.0893
     41  N        -21.7100   35.8730  -66.8860 N.am   86  LEU86      -0.1966
     42  CA       -20.9200   37.0930  -66.9750 C.3    86  LEU86       0.1728
     43  C        -20.1120   37.2430  -65.6960 C.2    86  LEU86       0.2616
     44  O        -20.6610   37.4130  -64.5860 O.2    86  LEU86      -0.2715
     45  CB       -21.8300   38.2990  -67.1520 C.3    86  LEU86       0.0311
     46  CG       -21.1790   39.6460  -67.3970 C.3    86  LEU86       0.0022
     47  CD1      -20.3870   39.5980  -68.6780 C.3    86  LEU86       0.0001
     48  CD2      -22.2620   40.7540  -67.4350 C.3    86  LEU86       0.0001
     49  N        -18.7940   37.1020  -65.8030 N.am   87  THR87      -0.1951
     50  CA       -17.9990   37.1540  -64.5910 C.3    87  THR87       0.1897
     51  C        -17.9950   38.5500  -63.9780 C.2    87  THR87       0.2313
     52  O        -17.8380   39.5550  -64.6840 O.2    87  THR87      -0.2863
     53  CB       -16.5510   36.7850  -64.9280 C.3    87  THR87       0.1794
     54  OG1      -16.5770   35.4820  -65.5010 O.3    87  THR87      -0.2208
     55  CG2      -15.7110   36.7260  -63.6760 C.3    87  THR87       0.0378
     56  N        -15.5520   45.8790  -64.8380 N.3    92  ARG92      -0.1245
     57  CA       -16.9630   45.9250  -65.2400 C.3    92  ARG92       0.1563
     58  C        -17.8440   46.6080  -64.2260 C.2    92  ARG92       0.2260
     59  O        -18.7880   47.2970  -64.5920 O.2    92  ARG92      -0.2867
     60  CB       -17.4960   44.5180  -65.5520 C.3    92  ARG92       0.0307
     61  CG       -16.8470   43.9610  -66.7670 C.3    92  ARG92       0.0489
     62  CD       -17.3070   42.4850  -66.9770 C.3    92  ARG92       0.2205
     63  NE       -16.7740   41.9140  -68.2160 N.pl3  92  ARG92      -0.0865
     64  CZ       -16.7010   40.5960  -68.4330 C.cat  92  ARG92       0.5346
     65  NH1      -17.0250   39.7480  -67.4720 N.pl3  92  ARG92       0.1354
     66  NH2      -16.2280   40.1480  -69.5820 N.pl3  92  ARG92       0.1354
     67  N         -9.9160   33.9740  -70.2870 N.3   138  SER138     -0.1217
     68  CA        -9.8300   34.4780  -68.9250 C.3   138  SER138      0.1889
     69  C         -8.7380   33.7940  -68.1100 C.2   138  SER138      0.2288
     70  O         -7.9920   34.4450  -67.3580 O.2   138  SER138     -0.2866
     71  CB       -11.1700   34.3040  -68.2090 C.3   138  SER138      0.2089
     72  OG       -11.0250   34.7040  -66.8630 O.3   138  SER138     -0.2183
     73  N        -11.7320   27.2800  -66.3470 N.3   187  GLU187     -0.1245
     74  CA       -12.6800   27.5250  -65.2660 C.3   187  GLU187      0.1567
     75  C        -13.3390   26.2300  -64.8670 C.2   187  GLU187      0.2260
     76  O        -13.6500   25.3860  -65.7340 O.2   187  GLU187     -0.2867
     77  CB       -13.7110   28.5860  -65.6880 C.3   187  GLU187      0.0388
     78  CG       -13.0250   29.9220  -65.7720 C.3   187  GLU187      0.1160
     79  CD       -13.9170   31.1070  -65.9920 C.2   187  GLU187      0.3649
     80  OE1      -13.3150   32.1960  -66.1140 O.co2 187  GLU187     -0.2457
     81  OE2      -15.1760   30.9910  -66.0230 O.co2 187  GLU187     -0.2457
     82  N        -16.3140   25.3670  -63.8980 N.3   189  THR189     -0.1203
     83  CA       -17.6410   25.0970  -64.4780 C.3   189  THR189      0.1994
     84  C        -17.4830   24.3680  -65.7920 C.2   189  THR189      0.2618
     85  O        -18.2020   23.4230  -66.0820 O.2   189  THR189     -0.2717
     86  CB       -18.3580   26.4350  -64.7170 C.3   189  THR189      0.1784
     87  OG1      -17.4430   27.3660  -65.3130 O.3   189  THR189     -0.2211
     88  CG2      -18.7790   27.0490  -63.3920 C.3   189  THR189      0.0376
     89  N        -16.5280   24.8250  -66.5990 N.am  190  SER190     -0.1951
     90  CA       -16.2240   24.1730  -67.8810 C.3   190  SER190      0.1924
     91  C        -15.6210   22.7930  -67.6480 C.2   190  SER190      0.2314
     92  O        -15.9620   21.8270  -68.3510 O.2   190  SER190     -0.2863
     93  CB       -15.2740   25.0490  -68.6900 C.3   190  SER190      0.2116
     94  OG       -15.8610   26.3230  -68.9330 O.3   190  SER190     -0.2180
     95  N        -20.2580   34.3340  -61.4240 N.3   213  TYR213     -0.1241
     96  CA       -21.0610   34.8440  -62.5340 C.3   213  TYR213      0.1605
     97  C        -22.2970   35.5250  -61.9440 C.2   213  TYR213      0.2264
     98  O        -22.9520   34.9600  -61.0830 O.2   213  TYR213     -0.2867
     99  CB       -21.5620   33.7120  -63.4730 C.3   213  TYR213      0.0534
    100  CG       -20.4960   32.8070  -64.0330 C.ar  213  TYR213     -0.0201
    101  CD1      -20.8270   31.5020  -64.3900 C.ar  213  TYR213     -0.0009
    102  CD2      -19.1850   33.2370  -64.2350 C.ar  213  TYR213     -0.0009
    103  CE1      -19.8930   30.6480  -64.9490 C.ar  213  TYR213      0.0417
    104  CE2      -18.2210   32.3590  -64.8010 C.ar  213  TYR213      0.0417
    105  CZ       -18.6080   31.0650  -65.1380 C.ar  213  TYR213      0.1957
    106  OH       -17.7250   30.1640  -65.6810 O.3   213  TYR213     -0.2866
@<TRIPOS>BOND
     1     1     2    1
     2    22    23    1
     3     2     3    1
     4     2     5    1
     5     8     7   ar
     6     3     4    2
     7     9     7   ar
     8     7     6    1
     9     5     6    1
    10    30    28   ar
    11    30    32   ar
    12    23    24    1
    13    23    26    1
    14    28    27   ar
    15    24    25    2
    16    33    32    1
    17    32    31   ar
    18    27    26    1
    19    27    29   ar
    20    29    31   ar
    21    12    13    2
    22    12    11    1
    23    10    11    1
    24    67    68    1
    25    11    14    1
    26    14    15    1
    27    16    15   ar
    28    16    18   ar
    29    66    64    1
    30    40    39    1
    31    40    34    1
    32    39    38    1
    33    15    17   ar
    34    94    93    1
    35    68    71    1
    36    68    69    1
    37    18    20   ar
    38    93    90    1
    39    47    46    1
    40    64    63    2
    41    64    65    1
    42    92    91    2
    43    34    35    1
    44    63    62    1
    45    71    72    1
    46    69    70    2
    47    37    36    2
    48    38    35    1
    49    90    91    1
    50    90    89    1
    51    17    19   ar
    52    20    19   ar
    53    20    21    1
    54    48    46    1
    55    36    35    1
    56    36    41   am
    57    46    45    1
    58    45    42    1
    59    62    61    1
    60    42    41    1
    61    42    43    1
    62    61    60    1
    63    89    84   am
    64    73    74    1
    65    80    79   ar
    66    85    84    2
    67    81    79   ar
    68    79    78    1
    69    49    43   am
    70    49    50    1
    71    84    83    1
    72    78    77    1
    73    76    75    2
    74    43    44    2
    75    77    74    1
    76   106   105    1
    77    60    57    1
    78    54    53    1
    79    87    86    1
    80    74    75    1
    81    57    56    1
    82    57    58    1
    83   105   103   ar
    84   105   104   ar
    85   103   101   ar
    86    53    50    1
    87    53    55    1
    88   104   102   ar
    89    86    83    1
    90    86    88    1
    91    52    51    2
    92    59    58    2
    93    50    51    1
    94    83    82    1
    95   101   100   ar
    96   102   100   ar
    97   100    99    1
    98    99    96    1
    99    96    97    1
   100    96    95    1
   101    97    98    2
