@<TRIPOS>MOLECULE
tmp/2qs8A00.pdb
 128 120 0 0 0
SMALL
GASTEIGER

@<TRIPOS>ATOM
      1  N         72.5550   38.5950   59.4260 N.3    61  HIS61      -0.1241
      2  CA        73.4650   39.4850   58.7100 C.3    61  HIS61       0.1621
      3  C         73.8400   38.9950   57.3170 C.2    61  HIS61       0.2264
      4  O         74.8280   38.2790   57.1410 O.2    61  HIS61      -0.2867
      5  CB        74.7260   39.6820   59.5570 C.3    61  HIS61       0.0745
      6  CG        75.5640   40.8600   59.1600 C.ar   61  HIS61       0.0817
      7  ND1       75.9010   41.8600   60.0470 N.ar   61  HIS61      -0.2268
      8  CD2       76.1760   41.1690   57.9930 C.ar   61  HIS61       0.1154
      9  CE1       76.6890   42.7320   59.4430 C.ar   61  HIS61       0.1986
     10  NE2       76.8720   42.3350   58.1970 N.ar   61  HIS61      -0.2212
     11  N         73.8900   40.0590   52.8560 N.3    63  HIS63      -0.1241
     12  CA        73.9000   41.1280   51.8620 C.3    63  HIS63       0.1621
     13  C         73.5620   40.5870   50.4710 C.2    63  HIS63       0.2264
     14  O         74.4150   40.5730   49.5780 O.2    63  HIS63      -0.2867
     15  CB        75.2780   41.8060   51.8080 C.3    63  HIS63       0.0745
     16  CG        75.6880   42.4640   53.0850 C.ar   63  HIS63       0.0817
     17  ND1       75.0620   43.5900   53.5780 N.ar   63  HIS63      -0.2268
     18  CD2       76.6710   42.1620   53.9680 C.ar   63  HIS63       0.1154
     19  CE1       75.6450   43.9550   54.7050 C.ar   63  HIS63       0.1986
     20  NE2       76.6230   43.1060   54.9650 N.ar   63  HIS63      -0.2212
     21  N         82.9100   53.6840   57.0940 N.3   141  HIS141     -0.1241
     22  CA        82.9240   52.3650   56.4750 C.3   141  HIS141      0.1621
     23  C         81.8470   52.1570   55.4210 C.2   141  HIS141      0.2264
     24  O         82.0880   51.4970   54.4090 O.2   141  HIS141     -0.2867
     25  CB        82.8170   51.2790   57.5510 C.3   141  HIS141      0.0745
     26  CG        82.8090   49.8840   57.0060 C.ar  141  HIS141      0.0817
     27  ND1       83.8400   49.3740   56.2430 N.ar  141  HIS141     -0.2268
     28  CD2       81.8900   48.8960   57.1090 C.ar  141  HIS141      0.1154
     29  CE1       83.5530   48.1290   55.9010 C.ar  141  HIS141      0.1986
     30  NE2       82.3770   47.8120   56.4140 N.ar  141  HIS141     -0.2212
     31  N         86.5910   46.9000   57.4550 N.3   192  VAL192     -0.1231
     32  CA        87.6140   46.2210   56.6670 C.3   192  VAL192      0.1692
     33  C         87.5300   46.3710   55.1450 C.2   192  VAL192      0.2591
     34  O         88.4380   46.9110   54.5190 O.2   192  VAL192     -0.2718
     35  CB        87.6470   44.7050   56.9910 C.3   192  VAL192      0.0266
     36  CG1       88.6590   43.9920   56.1030 C.3   192  VAL192      0.0020
     37  CG2       87.9930   44.4990   58.4390 C.3   192  VAL192      0.0020
     38  N         86.4480   45.8750   54.5590 N.am  193  LEU193     -0.1980
     39  CA        86.2740   45.9180   53.1090 C.3   193  LEU193      0.1596
     40  C         86.0270   47.2950   52.4750 C.2   193  LEU193      0.2287
     41  O         85.7830   47.3940   51.2800 O.2   193  LEU193     -0.2864
     42  CB        85.1570   44.9540   52.7140 C.3   193  LEU193      0.0297
     43  CG        85.4270   43.5370   53.2160 C.3   193  LEU193      0.0022
     44  CD1       84.2440   42.6320   52.8850 C.3   193  LEU193      0.0001
     45  CD2       86.7100   43.0260   52.5910 C.3   193  LEU193      0.0001
     46  N         77.4100   47.9390   63.0490 N.3   225  HIS225     -0.1241
     47  CA        78.7200   47.4390   62.6430 C.3   225  HIS225      0.1621
     48  C         79.7170   48.0520   63.6330 C.2   225  HIS225      0.2264
     49  O         79.6700   49.2530   63.8840 O.2   225  HIS225     -0.2867
     50  CB        79.0520   47.9260   61.2250 C.3   225  HIS225      0.0745
     51  CG        80.4940   47.7940   60.8520 C.ar  225  HIS225      0.0817
     52  ND1       80.9810   46.7410   60.1150 N.ar  225  HIS225     -0.2268
     53  CD2       81.5550   48.5950   61.1050 C.ar  225  HIS225      0.1154
     54  CE1       82.2790   46.8940   59.9260 C.ar  225  HIS225      0.1986
     55  NE2       82.6510   48.0140   60.5190 N.ar  225  HIS225     -0.2212
     56  N         83.9570   47.2540   65.1570 N.3   227  HIS227     -0.1241
     57  CA        85.1460   46.4520   65.4010 C.3   227  HIS227      0.1621
     58  C         85.8700   47.0380   66.6150 C.2   227  HIS227      0.2264
     59  O         86.2020   46.3140   67.5470 O.2   227  HIS227     -0.2867
     60  CB        86.0780   46.4760   64.1810 C.3   227  HIS227      0.0745
     61  CG        85.5420   45.7550   62.9870 C.ar  227  HIS227      0.0817
     62  ND1       85.2580   44.4070   62.9960 N.ar  227  HIS227     -0.2268
     63  CD2       85.2690   46.1860   61.7330 C.ar  227  HIS227      0.1154
     64  CE1       84.8350   44.0370   61.7990 C.ar  227  HIS227      0.1986
     65  NE2       84.8320   45.0990   61.0140 N.ar  227  HIS227     -0.2212
     66  N         79.9150   41.7150   64.3640 N.3   244  HIS244     -0.1241
     67  CA        81.3700   41.5110   64.3970 C.3   244  HIS244      0.1621
     68  C         82.0450   41.6970   65.7730 C.2   244  HIS244      0.2264
     69  O         82.6990   40.7800   66.2730 O.2   244  HIS244     -0.2867
     70  CB        82.0540   42.4280   63.3740 C.3   244  HIS244      0.0745
     71  CG        81.3010   42.5750   62.0900 C.ar  244  HIS244      0.0817
     72  ND1       80.8840   41.4970   61.3420 N.ar  244  HIS244     -0.2268
     73  CD2       80.8790   43.6740   61.4260 C.ar  244  HIS244      0.1154
     74  CE1       80.2380   41.9260   60.2710 C.ar  244  HIS244      0.1986
     75  NE2       80.2210   43.2440   60.3010 N.ar  244  HIS244     -0.2212
     76  N         79.4820   36.7210   63.0380 N.3   263  THR263     -0.1218
     77  CA        79.9300   36.6330   61.6470 C.3   263  THR263      0.1862
     78  C         81.3590   36.1010   61.6210 C.2   263  THR263      0.2287
     79  O         82.2550   36.6930   61.0030 O.2   263  THR263     -0.2866
     80  CB        79.8910   37.9990   60.8930 C.3   263  THR263      0.1770
     81  OG1       80.9270   38.8730   61.3830 O.3   263  THR263     -0.2211
     82  CG2       78.5180   38.6410   61.0450 C.3   263  THR263      0.0375
     83  N         82.8030   35.3520   57.9400 N.3   266  ALA266     -0.1231
     84  CA        83.3560   36.4930   57.2210 C.3   266  ALA266      0.1694
     85  C         84.7280   36.8340   57.7820 C.2   266  ALA266      0.2592
     86  O         85.6200   37.2380   57.0410 O.2   266  ALA266     -0.2718
     87  CB        82.4220   37.7000   57.3330 C.3   266  ALA266      0.0304
     88  N         84.8810   36.6730   59.0920 N.am  267  GLY267     -0.1957
     89  CA        86.1520   36.9540   59.7300 C.3   267  GLY267      0.1869
     90  C         87.2290   36.0400   59.1710 C.2   267  GLY267      0.2309
     91  O         88.2770   36.5040   58.7160 O.2   267  GLY267     -0.2863
     92  N         88.2020   36.9260   55.3270 N.3   270  VAL270     -0.1245
     93  CA        89.1660   37.9760   55.0420 C.3   270  VAL270      0.1561
     94  C         90.5670   37.6230   55.5270 C.2   270  VAL270      0.2260
     95  O         91.5550   38.0890   54.9580 O.2   270  VAL270     -0.2867
     96  CB        88.7270   39.3520   55.6330 C.3   270  VAL270      0.0252
     97  CG1       87.4070   39.7870   55.0140 C.3   270  VAL270      0.0019
     98  CG2       88.6010   39.2700   57.1280 C.3   270  VAL270      0.0019
     99  N         91.7400   42.3610   61.7060 N.3   291  VAL291     -0.1245
    100  CA        90.4030   42.0820   62.2170 C.3   291  VAL291      0.1561
    101  C         89.9420   40.6350   62.0960 C.2   291  VAL291      0.2260
    102  O         89.5530   40.0180   63.0850 O.2   291  VAL291     -0.2867
    103  CB        89.3460   42.9980   61.5300 C.3   291  VAL291      0.0252
    104  CG1       87.9440   42.6170   61.9770 C.3   291  VAL291      0.0019
    105  CG2       89.6170   44.4520   61.8720 C.3   291  VAL291      0.0019
    106  N         87.9940   37.6070   65.4970 N.3   295  ILE295     -0.1245
    107  CA        86.5830   37.3190   65.7390 C.3   295  ILE295      0.1561
    108  C         86.3290   35.9830   66.4400 C.2   295  ILE295      0.2260
    109  O         85.5790   35.9290   67.4100 O.2   295  ILE295     -0.2867
    110  CB        85.7720   37.3940   64.4290 C.3   295  ILE295      0.0252
    111  CG1       85.7890   38.8360   63.9090 C.3   295  ILE295      0.0019
    112  CG2       84.3340   36.9600   64.6710 C.3   295  ILE295      0.0019
    113  CD1       84.9830   39.0630   62.6440 C.3   295  ILE295      0.0001
    114  N         77.3260   37.3830   57.6710 N.3   314  ASP314     -0.1239
    115  CA        77.8590   38.4320   56.8170 C.3   314  ASP314      0.1674
    116  C         78.0790   37.8270   55.4260 C.2   314  ASP314      0.2266
    117  O         79.0580   38.1390   54.7300 O.2   314  ASP314     -0.2867
    118  CB        79.1690   39.0200   57.3660 C.3   314  ASP314      0.1410
    119  CG        79.4980   40.3920   56.7650 C.2   314  ASP314      0.3668
    120  OD1       78.7060   40.9180   55.9540 O.co2 314  ASP314     -0.2456
    121  OD2       80.5510   40.9650   57.1110 O.co2 314  ASP314     -0.2456
    122  N         80.0390   38.5580   51.6620 N.3   317  VAL317     -0.1245
    123  CA        81.4470   38.5880   51.7300 C.3   317  VAL317      0.1561
    124  C         81.7990   37.2520   51.1300 C.2   317  VAL317      0.2260
    125  O         82.2430   37.1590   49.9950 O.2   317  VAL317     -0.2867
    126  CB        81.9590   38.7190   53.1900 C.3   317  VAL317      0.0252
    127  CG1       83.4660   38.6080   53.2280 C.3   317  VAL317      0.0019
    128  CG2       81.4920   40.0400   53.7880 C.3   317  VAL317      0.0019
@<TRIPOS>BOND
     1    14    13    2
     2   125   124    2
     3    13    12    1
     4   124   123    1
     5    41    40    2
     6   122   123    1
     7   123   126    1
     8    15    12    1
     9    15    16    1
    10    12    11    1
    11    40    39    1
    12    45    43    1
    13    42    39    1
    14    42    43    1
    15    44    43    1
    16    16    17   ar
    17    16    18   ar
    18    39    38    1
    19   126   127    1
    20   126   128    1
    21    17    19   ar
    22    18    20   ar
    23    24    23    2
    24    34    33    2
    25    38    33   am
    26    19    20   ar
    27   117   116    2
    28    95    94    2
    29    97    96    1
    30    93    92    1
    31    93    94    1
    32    93    96    1
    33    33    32    1
    34    23    22    1
    35   116   115    1
    36    96    98    1
    37    29    27   ar
    38    29    30   ar
    39   120   119   ar
    40    36    35    1
    41    27    26   ar
    42    30    28   ar
    43    22    21    1
    44    22    25    1
    45    32    35    1
    46    32    31    1
    47   119   121   ar
    48   119   118    1
    49   115   118    1
    50   115   114    1
    51    35    37    1
    52    26    28   ar
    53    26    25    1
    54    86    85    2
    55     4     3    2
    56    84    87    1
    57    84    85    1
    58    84    83    1
    59     3     2    1
    60    85    88   am
    61     8    10   ar
    62     8     6   ar
    63    10     9   ar
    64     2     1    1
    65     2     5    1
    66    91    90    2
    67    88    89    1
    68     6     5    1
    69     6     7   ar
    70    90    89    1
    71     9     7   ar
    72    54    52   ar
    73    54    55   ar
    74    52    51   ar
    75    74    75   ar
    76    74    72   ar
    77    75    73   ar
    78    55    53   ar
    79    51    53   ar
    80    51    50    1
    81    80    82    1
    82    80    81    1
    83    80    77    1
    84    79    78    2
    85    65    63   ar
    86    65    64   ar
    87    50    47    1
    88    72    71   ar
    89    73    71   ar
    90   103   105    1
    91   103   104    1
    92   103   100    1
    93    78    77    1
    94    77    76    1
    95    99   100    1
    96    63    61   ar
    97    64    62   ar
    98    71    70    1
    99   101   100    1
   100   101   102    2
   101    47    46    1
   102    47    48    1
   103   113   111    1
   104    61    62   ar
   105    61    60    1
   106    70    67    1
   107    48    49    2
   108   111   110    1
   109    60    57    1
   110    66    67    1
   111    67    68    1
   112   110   112    1
   113   110   107    1
   114    56    57    1
   115    57    58    1
   116   106   107    1
   117   107   108    1
   118    68    69    2
   119   108   109    2
   120    58    59    2
