@<TRIPOS>MOLECULE
tmp/2qt0A00.pdb
 171 164 0 0 0
SMALL
GASTEIGER

@<TRIPOS>ATOM
      1  N        -26.4810   -1.7110   -7.9050 N.3    14  THR14      -0.1203
      2  CA       -25.9310   -0.6120   -8.6690 C.3    14  THR14       0.1994
      3  C        -27.0350    0.2450   -9.2750 C.2    14  THR14       0.2618
      4  O        -28.0740   -0.2720   -9.7230 O.2    14  THR14      -0.2717
      5  CB       -24.9370   -1.0930   -9.7740 C.3    14  THR14       0.1784
      6  OG1      -24.4680    0.0400  -10.5280 O.3    14  THR14      -0.2211
      7  CG2      -25.5750   -2.1220  -10.7160 C.3    14  THR14       0.0376
      8  N        -26.8110    1.5620   -9.2590 N.am   15  ASN15      -0.1960
      9  CA       -27.7690    2.5510   -9.7350 C.3    15  ASN15       0.1819
     10  C        -29.1360    2.6210   -9.0580 C.2    15  ASN15       0.2622
     11  O        -30.0690    3.2080   -9.6090 O.2    15  ASN15      -0.2715
     12  CB       -27.9220    2.4280  -11.2600 C.3    15  ASN15       0.1195
     13  CG       -26.7260    2.9260  -11.9710 C.2    15  ASN15       0.2630
     14  OD1      -26.5650    4.1380  -12.1320 O.2    15  ASN15      -0.2716
     15  ND2      -25.8330    2.0160  -12.3640 N.am   15  ASN15      -0.0877
     16  N        -29.2330    2.1050   -7.8410 N.am   16  SER16      -0.1936
     17  CA       -30.4790    2.2190   -7.0520 C.3    16  SER16       0.2055
     18  C        -30.6630    3.5910   -6.3910 C.2    16  SER16       0.2644
     19  O        -31.6980    3.8450   -5.7860 O.2    16  SER16      -0.2714
     20  CB       -30.5400    1.1200   -6.0010 C.3    16  SER16       0.2130
     21  OG       -29.3440    1.0440   -5.2850 O.3    16  SER16      -0.2179
     22  N        -29.6600    4.4680   -6.5110 N.am   17  GLY17      -0.1939
     23  CA       -29.7430    5.8370   -6.0220 C.3    17  GLY17       0.2014
     24  C        -29.0460    6.0250   -4.6770 C.2    17  GLY17       0.2639
     25  O        -29.3440    6.9880   -3.9710 O.2    17  GLY17      -0.2714
     26  N        -28.1140    5.1260   -4.3380 N.am   18  LYS18      -0.1963
     27  CA       -27.4040    5.1560   -3.0140 C.3    18  LYS18       0.1728
     28  C        -26.6250    6.4650   -2.8020 C.2    18  LYS18       0.2617
     29  O        -26.6640    7.0370   -1.7380 O.2    18  LYS18      -0.2715
     30  CB       -26.4010    3.9810   -2.8930 C.3    18  LYS18       0.0311
     31  CG       -26.9580    2.5600   -3.0240 C.3    18  LYS18       0.0038
     32  CD       -25.8050    1.5300   -3.1820 C.3    18  LYS18       0.0206
     33  CE       -25.5690    1.0650   -4.6770 C.3    18  LYS18       0.1093
     34  NZ       -24.7290    1.9600   -5.4890 N.3    18  LYS18      -0.1314
     35  N        -25.8770    6.8920   -3.8100 N.am   19  THR19      -0.1937
     36  CA       -24.9860    8.0450   -3.6670 C.3    19  THR19       0.2028
     37  C        -25.7900    9.3340   -3.5370 C.2    19  THR19       0.2642
     38  O        -25.5290   10.1620   -2.6540 O.2    19  THR19      -0.2714
     39  CB       -23.9590    8.1170   -4.7970 C.3    19  THR19       0.1808
     40  OG1      -23.0830    6.9750   -4.7290 O.3    19  THR19      -0.2208
     41  CG2      -23.1070    9.4110   -4.7120 C.3    19  THR19       0.0379
     42  N        -26.7950    9.4740   -4.3910 N.am   20  THR20      -0.1950
     43  CA       -27.7480   10.5720   -4.3060 C.3    20  THR20       0.1897
     44  C        -28.4390   10.6600   -2.9310 C.2    20  THR20       0.2313
     45  O        -28.5470   11.7630   -2.3470 O.2    20  THR20      -0.2863
     46  CB       -28.7930   10.4330   -5.4400 C.3    20  THR20       0.1794
     47  OG1      -28.0930   10.4260   -6.6870 O.3    20  THR20      -0.2208
     48  CG2      -29.7830   11.5920   -5.4290 C.3    20  THR20       0.0378
     49  N        -17.7970    3.8210   -3.6880 N.3    38  ASP38      -0.1239
     50  CA       -17.4400    4.1600   -5.0850 C.3    38  ASP38       0.1674
     51  C        -16.0200    4.7250   -5.1770 C.2    38  ASP38       0.2266
     52  O        -15.4110    4.6790   -6.2430 O.2    38  ASP38      -0.2867
     53  CB       -18.4290    5.1970   -5.6970 C.3    38  ASP38       0.1410
     54  CG       -19.9230    4.8110   -5.5390 C.2    38  ASP38       0.3668
     55  OD1      -20.2690    3.7670   -4.9220 O.co2  38  ASP38      -0.2456
     56  OD2      -20.7750    5.5600   -6.0670 O.co2  38  ASP38      -0.2456
     57  N        -22.4880   -0.4920   -2.9190 N.3    88  PHE88      -0.1241
     58  CA       -23.1500   -1.7220   -3.3800 C.3    88  PHE88       0.1605
     59  C        -22.7430   -3.0440   -2.7280 C.2    88  PHE88       0.2264
     60  O        -23.4180   -4.0610   -2.9640 O.2    88  PHE88      -0.2867
     61  CB       -23.0330   -1.8530   -4.9130 C.3    88  PHE88       0.0534
     62  CG       -21.7570   -2.4110   -5.3880 C.ar   88  PHE88      -0.0203
     63  CD1      -21.7490   -3.3660   -6.3870 C.ar   88  PHE88      -0.0042
     64  CD2      -20.5450   -1.9620   -4.9040 C.ar   88  PHE88      -0.0042
     65  CE1      -20.5590   -3.8750   -6.8700 C.ar   88  PHE88      -0.0003
     66  CE2      -19.3740   -2.4490   -5.3970 C.ar   88  PHE88      -0.0003
     67  CZ       -19.3870   -3.4190   -6.4020 C.ar   88  PHE88      -0.0000
     68  N        -35.4020   -1.6300  -14.7740 N.3   112  GLU112     -0.1245
     69  CA       -35.0570   -0.2810  -14.4130 C.3   112  GLU112      0.1567
     70  C        -33.5610   -0.1550  -14.0570 C.2   112  GLU112      0.2260
     71  O        -32.9320    0.8090  -14.4030 O.2   112  GLU112     -0.2867
     72  CB       -35.9550    0.2020  -13.2660 C.3   112  GLU112      0.0388
     73  CG       -35.6350    1.5850  -12.7610 C.3   112  GLU112      0.1160
     74  CD       -35.7760    2.6980  -13.7980 C.2   112  GLU112      0.3649
     75  OE1      -36.2140    2.4590  -14.9430 O.co2 112  GLU112     -0.2457
     76  OE2      -35.4510    3.8400  -13.4510 O.co2 112  GLU112     -0.2457
     77  N        -31.7410   -0.0630  -17.3290 N.3   115  ARG115     -0.1231
     78  CA       -32.0140    1.2110  -17.9710 C.3   115  ARG115      0.1694
     79  C        -31.0990    2.3100  -17.4370 C.2   115  ARG115      0.2591
     80  O        -30.3540    2.9300  -18.1760 O.2   115  ARG115     -0.2718
     81  CB       -33.4770    1.5990  -17.7890 C.3   115  ARG115      0.0321
     82  CG       -33.8900    2.7260  -18.7250 C.3   115  ARG115      0.0489
     83  CD       -35.1670    3.4210  -18.3320 C.3   115  ARG115      0.2205
     84  NE       -35.1350    4.0590  -17.0030 N.pl3 115  ARG115     -0.0865
     85  CZ       -34.4400    5.1600  -16.6950 C.cat 115  ARG115      0.5346
     86  NH1      -33.6800    5.7790  -17.5900 N.pl3 115  ARG115      0.1354
     87  NH2      -34.5060    5.6530  -15.4610 N.pl3 115  ARG115      0.1354
     88  N        -31.1370    2.5120  -16.1280 N.am  116  ARG116     -0.1980
     89  CA       -30.2490    3.4530  -15.4560 C.3   116  ARG116      0.1597
     90  C        -28.7650    3.2280  -15.7670 C.2   116  ARG116      0.2287
     91  O        -28.0300    4.1830  -16.0270 O.2   116  ARG116     -0.2864
     92  CB       -30.4880    3.3740  -13.9480 C.3   116  ARG116      0.0334
     93  CG       -31.8170    3.8830  -13.5440 C.3   116  ARG116      0.0492
     94  CD       -31.9220    3.9500  -12.0630 C.3   116  ARG116      0.2205
     95  NE       -33.2920    4.1730  -11.6390 N.pl3 116  ARG116     -0.0865
     96  CZ       -33.6650    4.3690  -10.3740 C.cat 116  ARG116      0.5346
     97  NH1      -32.7730    4.4020   -9.4110 N.pl3 116  ARG116      0.1354
     98  NH2      -34.9470    4.5480  -10.0800 N.pl3 116  ARG116      0.1354
     99  N        -27.5180    4.6410  -18.9520 N.3   119  THR119     -0.1203
    100  CA       -27.3430    6.0860  -18.9400 C.3   119  THR119      0.1994
    101  C        -25.9850    6.5250  -18.3430 C.2   119  THR119      0.2617
    102  O        -25.5970    7.6760  -18.5110 O.2   119  THR119     -0.2717
    103  CB       -28.4620    6.8280  -18.1870 C.3   119  THR119      0.1784
    104  OG1      -28.3340    6.6010  -16.7670 O.3   119  THR119     -0.2211
    105  CG2      -29.8610    6.4180  -18.6870 C.3   119  THR119      0.0376
    106  N        -25.2670    5.6130  -17.6690 N.am  120  ARG120     -0.1979
    107  CA       -24.0040    5.9480  -16.9890 C.3   120  ARG120      0.1597
    108  C        -22.8220    5.6520  -17.8930 C.2   120  ARG120      0.2287
    109  O        -22.8920    4.7660  -18.7280 O.2   120  ARG120     -0.2864
    110  CB       -23.8300    5.1020  -15.7250 C.3   120  ARG120      0.0334
    111  CG       -25.0340    5.1240  -14.7520 C.3   120  ARG120      0.0492
    112  CD       -25.2130    6.5110  -14.1320 C.3   120  ARG120      0.2205
    113  NE       -23.9740    6.9460  -13.4850 N.pl3 120  ARG120     -0.0865
    114  CZ       -23.5080    6.4420  -12.3360 C.cat 120  ARG120      0.5346
    115  NH1      -24.1810    5.4980  -11.6710 N.pl3 120  ARG120      0.1354
    116  NH2      -22.3750    6.8930  -11.8360 N.pl3 120  ARG120      0.1354
    117  N        -19.0290    4.5150  -16.9570 N.3   122  TYR122     -0.1241
    118  CA       -18.0470    4.1830  -15.9480 C.3   122  TYR122      0.1605
    119  C        -16.6970    4.2910  -16.5770 C.2   122  TYR122      0.2264
    120  O        -16.5780    4.4160  -17.8390 O.2   122  TYR122     -0.2867
    121  CB       -18.3010    2.7590  -15.4000 C.3   122  TYR122      0.0534
    122  CG       -19.5510    2.6610  -14.5610 C.ar  122  TYR122     -0.0201
    123  CD1      -19.5130    2.9230  -13.1990 C.ar  122  TYR122     -0.0009
    124  CD2      -20.7900    2.2980  -15.1270 C.ar  122  TYR122     -0.0009
    125  CE1      -20.6500    2.8430  -12.4240 C.ar  122  TYR122      0.0417
    126  CE2      -21.9280    2.2330  -14.3630 C.ar  122  TYR122      0.0417
    127  CZ       -21.8590    2.5000  -13.0060 C.ar  122  TYR122      0.1957
    128  OH       -22.9840    2.4160  -12.2140 O.3   122  TYR122     -0.2866
    129  N        -36.3910    1.8760   -4.4320 N.3   156  GLY156     -0.1210
    130  CA       -35.6310    2.8700   -5.1980 C.3   156  GLY156      0.1956
    131  C        -36.2530    3.4320   -6.4870 C.2   156  GLY156      0.2613
    132  O        -35.6260    4.2280   -7.1690 O.2   156  GLY156     -0.2717
    133  N        -37.4760    3.0170   -6.8260 N.am  157  THR157     -0.1938
    134  CA       -38.2130    3.6080   -7.9210 C.3   157  THR157      0.2028
    135  C        -39.0070    4.8230   -7.4270 C.2   157  THR157      0.2642
    136  O        -39.5250    5.5920   -8.2440 O.2   157  THR157     -0.2714
    137  CB       -39.1560    2.5900   -8.6000 C.3   157  THR157      0.1808
    138  OG1      -40.2380    2.2450   -7.7230 O.3   157  THR157     -0.2208
    139  CG2      -38.3910    1.3520   -9.0020 C.3   157  THR157      0.0379
    140  N        -39.0900    5.0040   -6.0980 N.am  158  LYS158     -0.1963
    141  CA       -39.6230    6.2370   -5.5460 C.3   158  LYS158      0.1728
    142  C        -38.6880    7.3420   -5.9430 C.2   158  LYS158      0.2617
    143  O        -37.5000    7.1010   -6.2400 O.2   158  LYS158     -0.2715
    144  CB       -39.7320    6.1930   -4.0350 C.3   158  LYS158      0.0311
    145  CG       -40.8280    5.3300   -3.4960 C.3   158  LYS158      0.0038
    146  CD       -40.6480    5.1950   -1.9720 C.3   158  LYS158      0.0206
    147  CE       -41.8730    4.5950   -1.2920 C.3   158  LYS158      0.1093
    148  NZ       -41.9100    5.0660    0.1090 N.3   158  LYS158     -0.1314
    149  N        -39.2100    8.5570   -5.9550 N.am  159  SER159     -0.1936
    150  CA       -38.4360    9.7180   -6.3590 C.3   159  SER159      0.2055
    151  C        -37.3140    9.9160   -5.3700 C.2   159  SER159      0.2642
    152  O        -37.3740    9.4100   -4.2520 O.2   159  SER159     -0.2714
    153  CB       -39.3140   10.9520   -6.3500 C.3   159  SER159      0.2130
    154  OG       -39.6160   11.3360   -5.0250 O.3   159  SER159     -0.2179
    155  N        -36.3040   10.6620   -5.7890 N.am  160  GLU160     -0.1976
    156  CA       -35.1590   10.9800   -4.9500 C.3   160  GLU160      0.1602
    157  C        -35.6290   11.6510   -3.6560 C.2   160  GLU160      0.2287
    158  O        -35.1590   11.3270   -2.5920 O.2   160  GLU160     -0.2864
    159  CB       -34.1930   11.9010   -5.6990 C.3   160  GLU160      0.0415
    160  CG       -33.4330   11.1940   -6.8260 C.3   160  GLU160      0.1163
    161  CD       -32.6450   12.1340   -7.7100 C.2   160  GLU160      0.3649
    162  OE1      -32.3540   13.2770   -7.2980 O.co2 160  GLU160     -0.2457
    163  OE2      -32.3090   11.7190   -8.8440 O.co2 160  GLU160     -0.2457
    164  N        -37.4450    9.1260   -1.2790 N.3   163  LEU163     -0.1245
    165  CA       -36.4400    8.2710   -0.6170 C.3   163  LEU163      0.1561
    166  C        -35.7280    8.9960    0.5310 C.2   163  LEU163      0.2260
    167  O        -35.5660    8.4350    1.6420 O.2   163  LEU163     -0.2867
    168  CB       -35.4010    7.7400   -1.6280 C.3   163  LEU163      0.0270
    169  CG       -35.7880    6.5240   -2.4600 C.3   163  LEU163      0.0019
    170  CD1      -34.6620    6.1910   -3.4760 C.3   163  LEU163      0.0001
    171  CD2      -36.0790    5.3030   -1.5740 C.3   163  LEU163      0.0001
@<TRIPOS>BOND
     1    99   100    1
     2   100   101    1
     3   100   103    1
     4   109   108    2
     5    82    83    1
     6    82    81    1
     7   105   103    1
     8   102   101    2
     9   101   106   am
    10    83    84    1
    11   103   104    1
    12    80    79    2
    13    78    81    1
    14    78    79    1
    15    78    77    1
    16   108   107    1
    17   120   119    2
    18   106   107    1
    19    86    85    1
    20    79    88   am
    21    84    85    2
    22   107   110    1
    23   117   118    1
    24    85    87    1
    25   119   118    1
    26    88    89    1
    27    91    90    2
    28   118   121    1
    29    90    89    1
    30   110   111    1
    31    89    92    1
    32   121   122    1
    33   124   122   ar
    34   124   126   ar
    35    75    74   ar
    36    68    69    1
    37   111   112    1
    38   122   123   ar
    39    69    70    1
    40    69    72    1
    41    71    70    2
    42   126   127   ar
    43   112   113    1
    44    92    93    1
    45    74    76   ar
    46    74    73    1
    47    93    94    1
    48   113   114    2
    49    72    73    1
    50   123   125   ar
    51   127   125   ar
    52   127   128    1
    53    15    13   am
    54   114   116    1
    55   114   115    1
    56    14    13    2
    57    94    95    1
    58    13    12    1
    59    95    96    2
    60    12     9    1
    61     7     5    1
    62     6     5    1
    63    96    98    1
    64    96    97    1
    65     5     2    1
    66     9     8    1
    67     9    10    1
    68     4     3    2
    69    11    10    2
    70     3     8   am
    71     3     2    1
    72    10    16   am
    73   139   137    1
    74   163   161   ar
    75     2     1    1
    76   137   134    1
    77   137   138    1
    78   136   135    2
    79   134   135    1
    80   134   133    1
    81    16    17    1
    82   161   162   ar
    83   161   160    1
    84   135   140   am
    85   132   131    2
    86    17    18    1
    87    17    20    1
    88    65    67   ar
    89    65    63   ar
    90   160   159    1
    91   133   131   am
    92    47    46    1
    93    22    18   am
    94    22    23    1
    95   131   130    1
    96    67    66   ar
    97    18    19    2
    98    63    62   ar
    99   150   153    1
   100   150   149    1
   101   150   151    1
   102   153   154    1
   103    52    51    2
   104   143   142    2
   105   140   141    1
   106    56    54   ar
   107    23    24    1
   108    20    21    1
   109   149   142   am
   110   142   141    1
   111   155   151   am
   112   155   156    1
   113   159   156    1
   114    53    54    1
   115    53    50    1
   116   141   144    1
   117    54    55   ar
   118    34    33    1
   119    46    48    1
   120    46    43    1
   121    66    64   ar
   122    62    61    1
   123    62    64   ar
   124   151   152    2
   125   130   129    1
   126    51    50    1
   127    50    49    1
   128   156   157    1
   129    61    58    1
   130    39    40    1
   131    39    41    1
   132    39    36    1
   133    33    32    1
   134    24    26   am
   135    24    25    2
   136    42    43    1
   137    42    37   am
   138    26    27    1
   139    43    44    1
   140   144   145    1
   141    35    36    1
   142    35    28   am
   143    36    37    1
   144   157   158    2
   145    37    38    2
   146   145   146    1
   147   170   169    1
   148    58    57    1
   149    58    59    1
   150    32    31    1
   151    31    30    1
   152    27    30    1
   153    27    28    1
   154    60    59    2
   155    44    45    2
   156    28    29    2
   157   169   168    1
   158   169   171    1
   159   146   147    1
   160   168   165    1
   161   147   148    1
   162   164   165    1
   163   165   166    1
   164   166   167    2
