@<TRIPOS>MOLECULE
tmp/2qt1A00.pdb
 145 140 0 0 0
SMALL
GASTEIGER

@<TRIPOS>ATOM
      1  N         15.3950  -17.9180   -3.2270 N.3    17  THR17      -0.1218
      2  CA        14.0860  -17.5500   -3.7710 C.3    17  THR17       0.1862
      3  C         14.0930  -17.6450   -5.2830 C.2    17  THR17       0.2287
      4  O         15.0500  -17.2550   -5.9100 O.2    17  THR17      -0.2866
      5  CB        13.7220  -16.0720   -3.3630 C.3    17  THR17       0.1770
      6  OG1       12.4070  -15.7250   -3.8260 O.3    17  THR17      -0.2211
      7  CG2       14.7760  -15.0450   -3.9030 C.3    17  THR17       0.0375
      8  N         12.5340  -24.4800   -6.8690 N.3    21  LYS21      -0.1245
      9  CA        12.5240  -25.5380   -5.8660 C.3    21  LYS21       0.1561
     10  C         11.2140  -26.2660   -5.9520 C.2    21  LYS21       0.2260
     11  O         11.1590  -27.4880   -5.9610 O.2    21  LYS21      -0.2867
     12  CB        12.6520  -24.9700   -4.4920 C.3    21  LYS21       0.0271
     13  CG        13.9090  -24.2300   -4.2810 C.3    21  LYS21       0.0035
     14  CD        14.0410  -23.8080   -2.8490 C.3    21  LYS21       0.0206
     15  CE        13.1430  -22.6980   -2.4500 C.3    21  LYS21       0.1093
     16  NZ        13.3550  -21.4300   -3.2370 N.3    21  LYS21      -0.1314
     17  N          6.7420  -22.8520    2.4540 N.3    41  ASP41      -0.1239
     18  CA         5.9700  -21.6320    2.3220 C.3    41  ASP41       0.1674
     19  C          4.5340  -21.7970    2.8130 C.2    41  ASP41       0.2266
     20  O          3.8290  -20.7860    3.0040 O.2    41  ASP41      -0.2867
     21  CB         5.9490  -21.2270    0.8540 C.3    41  ASP41       0.1410
     22  CG         7.2560  -20.5140    0.4030 C.2    41  ASP41       0.3668
     23  OD1        8.2660  -20.5270    1.1270 O.co2  41  ASP41      -0.2456
     24  OD2        7.2260  -19.9300   -0.6930 O.co2  41  ASP41      -0.2456
     25  N          4.3510  -20.0370    6.7730 N.3    44  PHE44      -0.1227
     26  CA         4.6120  -18.6680    7.2080 C.3    44  PHE44       0.1736
     27  C          3.6200  -18.2410    8.2740 C.2    44  PHE44       0.2595
     28  O          2.4440  -18.6530    8.2340 O.2    44  PHE44      -0.2718
     29  CB         4.5540  -17.6930    6.0320 C.3    44  PHE44       0.0547
     30  CG         5.8550  -17.5690    5.3090 C.ar   44  PHE44      -0.0202
     31  CD1        6.9060  -16.8690    5.8830 C.ar   44  PHE44      -0.0042
     32  CD2        6.0170  -18.1080    4.0610 C.ar   44  PHE44      -0.0042
     33  CE1        8.0980  -16.7570    5.2450 C.ar   44  PHE44      -0.0003
     34  CE2        7.2130  -18.0030    3.4090 C.ar   44  PHE44      -0.0003
     35  CZ         8.2540  -17.3310    3.9970 C.ar   44  PHE44      -0.0000
     36  N          4.0900  -17.4530    9.2360 N.am   45  LYS45      -0.1980
     37  CA         3.2030  -16.8930   10.2550 C.3    45  LYS45       0.1596
     38  C          2.3090  -15.8220    9.6220 C.2    45  LYS45       0.2287
     39  O          2.5870  -15.3550    8.5030 O.2    45  LYS45      -0.2864
     40  CB         3.9990  -16.3470   11.4470 C.3    45  LYS45       0.0298
     41  CG         4.7000  -17.3850   12.2780 C.3    45  LYS45       0.0038
     42  CD         5.6510  -16.7520   13.2790 C.3    45  LYS45       0.0206
     43  CE         6.2760  -17.7910   14.1560 C.3    45  LYS45       0.1093
     44  NZ         7.3540  -17.2610   15.0310 N.3    45  LYS45      -0.1314
     45  N         10.4830  -11.3990    6.6940 N.3    60  TYR60      -0.1227
     46  CA         9.9650  -12.6750    6.2420 C.3    60  TYR60       0.1736
     47  C         11.0270  -13.7260    6.0110 C.2    60  TYR60       0.2595
     48  O         10.7390  -14.8970    6.1390 O.2    60  TYR60      -0.2718
     49  CB         9.1940  -12.4980    4.9570 C.3    60  TYR60       0.0548
     50  CG         7.7400  -12.1990    5.2260 C.ar   60  TYR60      -0.0200
     51  CD1        6.8940  -13.1790    5.7490 C.ar   60  TYR60      -0.0009
     52  CD2        7.2160  -10.8960    5.0250 C.ar   60  TYR60      -0.0009
     53  CE1        5.5430  -12.8900    6.0110 C.ar   60  TYR60       0.0417
     54  CE2        5.8680  -10.6030    5.2740 C.ar   60  TYR60       0.0417
     55  CZ         5.0550  -11.5970    5.7810 C.ar   60  TYR60       0.1957
     56  OH         3.7230  -11.3110    6.0520 O.3    60  TYR60      -0.2866
     57  N         12.2690  -13.3270    5.7400 N.am   61  ASP61      -0.1974
     58  CA        13.2670  -14.2980    5.2090 C.3    61  ASP61       0.1709
     59  C         14.1780  -14.8060    6.3150 C.2    61  ASP61       0.2293
     60  O         15.4320  -14.8860    6.1530 O.2    61  ASP61      -0.2864
     61  CB        14.0420  -13.6720    4.0630 C.3    61  ASP61       0.1436
     62  CG        13.1930  -13.4800    2.8310 C.2    61  ASP61       0.3671
     63  OD1       12.0410  -12.9410    2.9620 O.co2  61  ASP61      -0.2456
     64  OD2       13.6370  -13.8500    1.7030 O.co2  61  ASP61      -0.2456
     65  N         12.9080  -22.4640    1.0600 N.3    96  PHE96      -0.1241
     66  CA        14.0370  -21.5500    1.0300 C.3    96  PHE96       0.1605
     67  C         14.8920  -21.5100    2.2860 C.2    96  PHE96       0.2264
     68  O         15.9710  -20.9520    2.2740 O.2    96  PHE96      -0.2867
     69  CB        13.5600  -20.1020    0.7120 C.3    96  PHE96       0.0534
     70  CG        13.0720  -19.3460    1.8790 C.ar   96  PHE96      -0.0203
     71  CD1       13.7480  -18.2300    2.2890 C.ar   96  PHE96      -0.0042
     72  CD2       11.9400  -19.7340    2.5640 C.ar   96  PHE96      -0.0042
     73  CE1       13.3340  -17.4990    3.3950 C.ar   96  PHE96      -0.0003
     74  CE2       11.5100  -19.0090    3.6390 C.ar   96  PHE96      -0.0003
     75  CZ        12.1990  -17.8710    4.0410 C.ar   96  PHE96      -0.0000
     76  N         12.5950  -12.5960   -9.1940 N.3   125  ARG125     -0.1245
     77  CA        11.7970  -12.1860   -8.0440 C.3   125  ARG125      0.1563
     78  C         10.7940  -11.0920   -8.4320 C.2   125  ARG125      0.2260
     79  O          9.6470  -11.0950   -7.9700 O.2   125  ARG125     -0.2867
     80  CB        12.7110  -11.7310   -6.9050 C.3   125  ARG125      0.0307
     81  CG        11.9620  -11.2290   -5.6670 C.3   125  ARG125      0.0489
     82  CD        11.6250  -12.3310   -4.7260 C.3   125  ARG125      0.2205
     83  NE        10.9000  -11.8090   -3.5630 N.pl3 125  ARG125     -0.0865
     84  CZ        10.8820  -12.3770   -2.3680 C.cat 125  ARG125      0.5346
     85  NH1       11.5920  -13.4580   -2.1320 N.pl3 125  ARG125      0.1354
     86  NH2       10.1870  -11.8240   -1.3940 N.pl3 125  ARG125      0.1354
     87  N          7.3550  -12.3130   -9.7760 N.3   128  ARG128     -0.1245
     88  CA         6.3890  -12.9630   -8.8830 C.3   128  ARG128      0.1563
     89  C          5.6630  -11.9290   -8.0150 C.2   128  ARG128      0.2260
     90  O          6.2220  -10.8890   -7.6950 O.2   128  ARG128     -0.2867
     91  CB         7.0720  -14.0130   -7.9980 C.3   128  ARG128      0.0307
     92  CG         6.0800  -14.9850   -7.3630 C.3   128  ARG128      0.0489
     93  CD         6.7560  -16.1570   -6.6780 C.3   128  ARG128      0.2205
     94  NE         7.5800  -16.9500   -7.5930 N.pl3 128  ARG128     -0.0865
     95  CZ         8.2460  -18.0470   -7.2420 C.cat 128  ARG128      0.5346
     96  NH1        8.1890  -18.4960   -5.9910 N.pl3 128  ARG128      0.1354
     97  NH2        8.9700  -18.6980   -8.1490 N.pl3 128  ARG128      0.1354
     98  N          3.9690  -11.5790   -4.2990 N.3   130  TYR130     -0.1227
     99  CA         3.7860  -12.1250   -2.9480 C.3   130  TYR130      0.1736
    100  C          2.6430  -11.4050   -2.2460 C.2   130  TYR130      0.2595
    101  O          2.2350  -10.3070   -2.6660 O.2   130  TYR130     -0.2718
    102  CB         5.0820  -12.0170   -2.1120 C.3   130  TYR130      0.0548
    103  CG         6.2230  -12.8080   -2.7250 C.ar  130  TYR130     -0.0200
    104  CD1        6.4600  -14.1350   -2.3790 C.ar  130  TYR130     -0.0009
    105  CD2        7.0280  -12.2330   -3.7130 C.ar  130  TYR130     -0.0009
    106  CE1        7.5100  -14.8740   -2.9830 C.ar  130  TYR130      0.0417
    107  CE2        8.0580  -12.9500   -4.3110 C.ar  130  TYR130      0.0417
    108  CZ         8.2920  -14.2610   -3.9410 C.ar  130  TYR130      0.1957
    109  OH         9.3340  -14.9460   -4.5440 O.3   130  TYR130     -0.2866
    110  N          2.1270  -12.0210   -1.1870 N.am  131  GLN131     -0.1966
    111  CA         1.0980  -11.4170   -0.3460 C.3   131  GLN131      0.1718
    112  C          1.6540  -11.3740    1.0810 C.2   131  GLN131      0.2458
    113  O          1.7340  -12.4300    1.7300 O.2   131  GLN131     -0.2730
    114  CB        -0.1850  -12.2500   -0.3950 C.3   131  GLN131      0.0407
    115  CG        -0.9990  -12.0990   -1.6910 C.3   131  GLN131      0.0908
    116  CD        -1.3870  -10.6620   -2.0050 C.2   131  GLN131      0.2608
    117  OE1       -2.0440  -10.0000   -1.2120 O.2   131  GLN131     -0.2717
    118  NE2       -0.9240  -10.1570   -3.1350 N.am  131  GLN131     -0.0878
    119  N          2.0620  -10.1740    1.5700 N.am  132  PRO132     -0.2727
    120  CA         1.9980   -8.8900    0.8690 C.3   132  PRO132      0.1402
    121  C          3.0740   -8.7840   -0.2060 C.2   132  PRO132      0.2269
    122  O          4.0280   -9.5860   -0.2190 O.2   132  PRO132     -0.2865
    123  CB         2.2640   -7.8710    1.9810 C.3   132  PRO132      0.0296
    124  CG         3.1540   -8.5910    2.9180 C.3   132  PRO132      0.0237
    125  CD         2.6650  -10.0180    2.9070 C.3   132  PRO132      0.0939
    126  N          6.2960   -7.4210   -2.4010 N.3   134  ASP134     -0.1239
    127  CA         7.6010   -6.8310   -2.1740 C.3   134  ASP134      0.1674
    128  C          7.4870   -5.3320   -2.2580 C.2   134  ASP134      0.2266
    129  O          7.0650   -4.7810   -3.2680 O.2   134  ASP134     -0.2867
    130  CB         8.5990   -7.2960   -3.2300 C.3   134  ASP134      0.1410
    131  CG         9.0020   -8.7460   -3.0600 C.2   134  ASP134      0.3668
    132  OD1        8.6210   -9.3660   -2.0600 O.co2 134  ASP134     -0.2456
    133  OD2        9.7120   -9.2550   -3.9490 O.co2 134  ASP134     -0.2456
    134  N         12.8710   -4.0270   -1.5680 N.3   138  TYR138     -0.1241
    135  CA        12.8160   -5.1890   -0.7000 C.3   138  TYR138      0.1605
    136  C         13.8890   -6.2120   -1.0550 C.2   138  TYR138      0.2264
    137  O         14.4020   -6.8490   -0.1660 O.2   138  TYR138     -0.2867
    138  CB        11.4310   -5.8210   -0.7520 C.3   138  TYR138      0.0534
    139  CG        11.1260   -6.7640    0.3680 C.ar  138  TYR138     -0.0201
    140  CD1       11.0240   -6.3240    1.6590 C.ar  138  TYR138     -0.0009
    141  CD2       10.8970   -8.0950    0.1120 C.ar  138  TYR138     -0.0009
    142  CE1       10.7100   -7.2000    2.6970 C.ar  138  TYR138      0.0417
    143  CE2       10.5850   -8.9850    1.1470 C.ar  138  TYR138      0.0417
    144  CZ        10.4930   -8.5370    2.4260 C.ar  138  TYR138      0.1957
    145  OH        10.1680   -9.3770    3.4660 O.3   138  TYR138     -0.2866
@<TRIPOS>BOND
     1    87    88    1
     2    76    77    1
     3    88    89    1
     4    88    91    1
     5    78    77    1
     6    78    79    2
     7    97    95    1
     8    77    80    1
     9    89    90    2
    10    91    92    1
    11    94    95    2
    12    94    93    1
    13    92    93    1
    14    95    96    1
    15    80    81    1
    16     8     9    1
    17    11    10    2
    18    10     9    1
    19     4     3    2
    20     9    12    1
    21    81    82    1
    22     3     2    1
    23    82    83    1
    24   109   108    1
    25    12    13    1
    26   107   108   ar
    27   107   105   ar
    28    98    99    1
    29    13    14    1
    30   133   131   ar
    31   108   106   ar
    32     7     5    1
    33     6     5    1
    34     2     5    1
    35     2     1    1
    36   105   103   ar
    37    83    84    2
    38   129   128    2
    39    16    15    1
    40   130   131    1
    41   130   127    1
    42   118   116   am
    43   131   132   ar
    44   106   104   ar
    45    99   100    1
    46    99   102    1
    47    14    15    1
    48   103   104   ar
    49   103   102    1
    50   101   100    2
    51   126   127    1
    52    84    85    1
    53    84    86    1
    54   128   127    1
    55   100   110   am
    56   116   115    1
    57   116   117    2
    58   115   114    1
    59   134   135    1
    60   110   111    1
    61   136   135    1
    62   136   137    2
    63   138   135    1
    64   138   139    1
    65    24    22   ar
    66   114   111    1
    67   111   112    1
    68   122   121    2
    69   121   120    1
    70   141   139   ar
    71   141   143   ar
    72   139   140   ar
    73    22    21    1
    74    22    23   ar
    75    69    66    1
    76    69    70    1
    77    21    18    1
    78   120   119    1
    79   120   123    1
    80    66    65    1
    81    66    67    1
    82   112   119   am
    83   112   113    2
    84   143   144   ar
    85   119   125    1
    86   140   142   ar
    87    64    62   ar
    88    70    71   ar
    89    70    72   ar
    90   123   124    1
    91    68    67    2
    92    71    73   ar
    93    18    17    1
    94    18    19    1
    95   144   142   ar
    96   144   145    1
    97    72    74   ar
    98    19    20    2
    99    62    63   ar
   100    62    61    1
   101   125   124    1
   102    73    75   ar
   103    34    35   ar
   104    34    32   ar
   105    74    75   ar
   106    35    33   ar
   107    32    30   ar
   108    61    58    1
   109    49    50    1
   110    49    46    1
   111    52    50   ar
   112    52    54   ar
   113    58    57    1
   114    58    59    1
   115    50    51   ar
   116    33    31   ar
   117    54    55   ar
   118    30    31   ar
   119    30    29    1
   120    57    47   am
   121    51    53   ar
   122    55    53   ar
   123    55    56    1
   124    47    48    2
   125    47    46    1
   126    29    26    1
   127    60    59    2
   128    46    45    1
   129    25    26    1
   130    26    27    1
   131    28    27    2
   132    27    36   am
   133    39    38    2
   134    36    37    1
   135    38    37    1
   136    37    40    1
   137    40    41    1
   138    41    42    1
   139    42    43    1
   140    43    44    1
