@<TRIPOS>MOLECULE
tmp/2qt5A00.pdb
 124 118 0 0 0
SMALL
GASTEIGER

@<TRIPOS>ATOM
      1  N         12.9500   12.0120   16.4520 N.3    12  LYS12      -0.1245
      2  CA        13.6010   13.3120   16.3930 C.3    12  LYS12       0.1561
      3  C         14.8260   13.2990   17.3060 C.2    12  LYS12       0.2260
      4  O         14.7720   12.7800   18.4280 O.2    12  LYS12      -0.2867
      5  CB        12.6150   14.3690   16.8800 C.3    12  LYS12       0.0271
      6  CG        12.6280   15.6950   16.1680 C.3    12  LYS12       0.0035
      7  CD        11.6470   16.6280   16.8680 C.3    12  LYS12       0.0206
      8  CE        11.0810   17.6910   15.9330 C.3    12  LYS12       0.1093
      9  NZ        10.1510   18.6140   16.6530 N.3    12  LYS12      -0.1314
     10  N         17.1440   18.9030   13.0150 N.3    17  THR17      -0.1203
     11  CA        15.9100   18.8800   12.2550 C.3    17  THR17       0.1994
     12  C         15.7140   17.4920   11.6350 C.2    17  THR17       0.2618
     13  O         16.6280   16.6590   11.6510 O.2    17  THR17      -0.2717
     14  CB        15.9140   19.9680   11.1520 C.3    17  THR17       0.1784
     15  OG1       16.9360   19.6860   10.1910 O.3    17  THR17      -0.2211
     16  CG2       16.1530   21.3580   11.7510 C.3    17  THR17       0.0376
     17  N         14.5240   17.2530   11.0910 N.am   18  LEU18      -0.1965
     18  CA        14.1750   15.9540   10.5170 C.3    18  LEU18       0.1728
     19  C         14.6530   15.7640    9.0750 C.2    18  LEU18       0.2617
     20  O         14.7080   14.6370    8.5840 O.2    18  LEU18      -0.2715
     21  CB        12.6630   15.7270   10.5950 C.3    18  LEU18       0.0311
     22  CG        12.0290   15.5110   11.9720 C.3    18  LEU18       0.0022
     23  CD1       10.5340   15.7720   11.8800 C.3    18  LEU18       0.0001
     24  CD2       12.3170   14.1130   12.5550 C.3    18  LEU18       0.0001
     25  N         14.9960   16.8670    8.4130 N.am   19  GLY19      -0.1940
     26  CA        15.3430   16.8570    7.0010 C.3    19  GLY19       0.2014
     27  C         14.1040   16.6360    6.1480 C.2    19  GLY19       0.2639
     28  O         14.1570   15.9420    5.1270 O.2    19  GLY19      -0.2714
     29  N         12.9940   17.2330    6.5810 N.am   20  LEU20      -0.1963
     30  CA        11.6950   17.0890    5.9390 C.3    20  LEU20       0.1728
     31  C         11.1190   18.4600    5.5910 C.2    20  LEU20       0.2617
     32  O         10.8290   19.2620    6.4820 O.2    20  LEU20      -0.2715
     33  CB        10.7340   16.3240    6.8630 C.3    20  LEU20       0.0311
     34  CG         9.2380   16.2790    6.5270 C.3    20  LEU20       0.0022
     35  CD1        8.9610   15.4210    5.2920 C.3    20  LEU20       0.0001
     36  CD2        8.4440   15.7650    7.7210 C.3    20  LEU20       0.0001
     37  N         10.9690   18.7250    4.2960 N.am   21  THR21      -0.1937
     38  CA        10.3730   19.9680    3.8280 C.3    21  THR21       0.2028
     39  C          8.9050   19.7510    3.4390 C.2    21  THR21       0.2642
     40  O          8.5620   18.8450    2.6530 O.2    21  THR21      -0.2714
     41  CB        11.1680   20.5830    2.6600 C.3    21  THR21       0.1808
     42  OG1       12.5490   20.6700    3.0250 O.3    21  THR21      -0.2208
     43  CG2       10.6570   21.9840    2.3210 C.3    21  THR21       0.0379
     44  N          8.0560   20.6090    3.9990 N.am   22  VAL22      -0.1963
     45  CA         6.6160   20.4970    3.8840 C.3    22  VAL22       0.1727
     46  C          6.0710   21.7330    3.1660 C.2    22  VAL22       0.2616
     47  O          6.3970   22.8710    3.5300 O.2    22  VAL22      -0.2715
     48  CB         5.9620   20.3660    5.2910 C.3    22  VAL22       0.0290
     49  CG1        4.4380   20.2750    5.1810 C.3    22  VAL22       0.0023
     50  CG2        6.5400   19.1490    6.0570 C.3    22  VAL22       0.0023
     51  N          5.2580   21.5010    2.1390 N.am   23  SER23      -0.1950
     52  CA         4.5530   22.5730    1.4590 C.3    23  SER23       0.1924
     53  C          3.0510   22.4570    1.7490 C.2    23  SER23       0.2314
     54  O          2.5900   21.4310    2.2680 O.2    23  SER23      -0.2863
     55  CB         4.8060   22.4880   -0.0450 C.3    23  SER23       0.2116
     56  OG         4.2400   21.2970   -0.5820 O.3    23  SER23      -0.2180
     57  N          7.6680   18.0020    0.0460 N.3    35  SER35      -0.1202
     58  CA         8.1710   18.6630   -1.1700 C.3    35  SER35       0.2020
     59  C          9.6720   18.4680   -1.3560 C.2    35  SER35       0.2618
     60  O         10.2160   18.7770   -2.4170 O.2    35  SER35      -0.2717
     61  CB         7.8600   20.1640   -1.1390 C.3    35  SER35       0.2103
     62  OG         8.6220   20.8050   -0.1320 O.3    35  SER35      -0.2182
     63  N         10.3330   17.9730   -0.3140 N.am   36  ASN36      -0.1974
     64  CA        11.7590   17.6860   -0.3560 C.3    36  ASN36       0.1688
     65  C         12.1570   16.8810    0.8580 C.2    36  ASN36       0.2292
     66  O         11.5490   17.0100    1.9230 O.2    36  ASN36      -0.2864
     67  CB        12.5930   18.9700   -0.4160 C.3    36  ASN36       0.1181
     68  CG        14.0360   18.7090   -0.8320 C.2    36  ASN36       0.2629
     69  OD1       14.3300   18.5700   -2.0210 O.2    36  ASN36      -0.2716
     70  ND2       14.9420   18.6430    0.1500 N.am   36  ASN36      -0.0877
     71  N         15.8110   16.1370    2.7480 N.3    38  ARG38      -0.1245
     72  CA        17.2350   16.4740    2.7750 C.3    38  ARG38       0.1563
     73  C         18.0980   15.2120    2.7620 C.2    38  ARG38       0.2260
     74  O         17.8540   14.2780    3.5290 O.2    38  ARG38      -0.2867
     75  CB        17.5840   17.3560    3.9870 C.3    38  ARG38       0.0307
     76  CG        19.0600   17.7780    4.0690 C.3    38  ARG38       0.0489
     77  CD        19.3280   18.7590    5.2220 C.3    38  ARG38       0.2205
     78  NE        18.7000   20.0630    4.9870 N.pl3  38  ARG38      -0.0865
     79  CZ        19.2730   21.0960    4.3660 C.cat  38  ARG38       0.5346
     80  NH1       20.5190   21.0160    3.9050 N.pl3  38  ARG38       0.1354
     81  NH2       18.5950   22.2270    4.2140 N.pl3  38  ARG38       0.1354
     82  N         -0.3620   26.9550    6.5380 N.3    68  HIS68      -0.1226
     83  CA         1.0180   26.4800    6.3900 C.3    68  HIS68       0.1752
     84  C          1.8720   26.6520    7.6490 C.2    68  HIS68       0.2596
     85  O          2.4320   25.6700    8.1610 O.2    68  HIS68      -0.2718
     86  CB         1.7010   27.1680    5.2000 C.3    68  HIS68       0.0759
     87  CG         3.1170   26.7300    4.9820 C.ar   68  HIS68       0.0818
     88  ND1        3.4410   25.5130    4.4160 N.ar   68  HIS68      -0.2268
     89  CD2        4.2960   27.3420    5.2600 C.ar   68  HIS68       0.1154
     90  CE1        4.7580   25.3960    4.3530 C.ar   68  HIS68       0.1986
     91  NE2        5.3000   26.4920    4.8580 N.ar   68  HIS68      -0.2212
     92  N          1.9620   27.8940    8.1380 N.am   69  ASP69      -0.1974
     93  CA         2.8090   28.2440    9.2940 C.3    69  ASP69       0.1709
     94  C          2.4250   27.4950   10.5650 C.2    69  ASP69       0.2293
     95  O          3.2750   27.1980   11.3980 O.2    69  ASP69      -0.2864
     96  CB         2.7650   29.7560    9.5670 C.3    69  ASP69       0.1436
     97  CG         3.5320   30.5760    8.5310 C.2    69  ASP69       0.3671
     98  OD1        4.3030   30.0020    7.7230 O.co2  69  ASP69      -0.2456
     99  OD2        3.3640   31.8160    8.5320 O.co2  69  ASP69      -0.2456
    100  N          3.9140   23.9510   10.3280 N.3    72  ILE72      -0.1245
    101  CA         5.3350   24.0460   10.6650 C.3    72  ILE72       0.1561
    102  C          5.5650   24.1700   12.1800 C.2    72  ILE72       0.2260
    103  O          6.4380   23.4820   12.7280 O.2    72  ILE72      -0.2867
    104  CB         6.0200   25.2040    9.8790 C.3    72  ILE72       0.0252
    105  CG1        5.8070   25.0210    8.3620 C.3    72  ILE72       0.0019
    106  CG2        7.5000   25.3200   10.2340 C.3    72  ILE72       0.0019
    107  CD1        6.2290   23.6200    7.7850 C.3    72  ILE72       0.0001
    108  N          5.0220   20.7450   13.6980 N.3    75  LEU75      -0.1231
    109  CA         6.1700   19.8680   13.4560 C.3    75  LEU75       0.1693
    110  C          7.4210   20.2590   14.2500 C.2    75  LEU75       0.2591
    111  O          8.1620   19.3860   14.6940 O.2    75  LEU75      -0.2718
    112  CB         6.4890   19.7680   11.9540 C.3    75  LEU75       0.0284
    113  CG         5.4660   18.9710   11.1330 C.3    75  LEU75       0.0019
    114  CD1        5.5910   19.2680    9.6560 C.3    75  LEU75       0.0001
    115  CD2        5.5690   17.4560   11.4080 C.3    75  LEU75       0.0001
    116  N          7.6530   21.5570   14.4350 N.am   76  LYS76      -0.1980
    117  CA         8.8260   22.0070   15.1810 C.3    76  LYS76       0.1596
    118  C          8.6940   21.8110   16.6980 C.2    76  LYS76       0.2287
    119  O          9.6910   21.8170   17.4220 O.2    76  LYS76      -0.2864
    120  CB         9.1690   23.4600   14.8320 C.3    76  LYS76       0.0298
    121  CG         9.8730   23.5880   13.4810 C.3    76  LYS76       0.0038
    122  CD        10.3280   25.0040   13.1690 C.3    76  LYS76       0.0206
    123  CE        11.1040   25.0060   11.8380 C.3    76  LYS76       0.1093
    124  NZ        11.5690   26.3620   11.4520 N.3    76  LYS76      -0.1314
@<TRIPOS>BOND
     1    60    59    2
     2    69    68    2
     3    59    58    1
     4    59    63   am
     5    58    61    1
     6    58    57    1
     7    61    62    1
     8    68    67    1
     9    68    70   am
    10    56    55    1
    11    67    64    1
    12    64    63    1
    13    64    65    1
    14    55    52    1
    15    65    66    2
    16    52    53    1
    17    52    51    1
    18    53    54    2
    19    51    46   am
    20    43    41    1
    21    40    39    2
    22    41    42    1
    23    41    38    1
    24    71    72    1
    25    73    72    1
    26    73    74    2
    27    72    75    1
    28    46    47    2
    29    46    45    1
    30    39    38    1
    31    39    44   am
    32    38    37    1
    33    45    44    1
    34    45    48    1
    35    80    79    1
    36    75    76    1
    37    76    77    1
    38    81    79    1
    39    37    31   am
    40    90    88   ar
    41    90    91   ar
    42    79    78    2
    43    88    87   ar
    44    91    89   ar
    45    87    86    1
    46    87    89   ar
    47    78    77    1
    48    28    27    2
    49    49    48    1
    50    86    83    1
    51    48    50    1
    52    35    34    1
    53    31    30    1
    54    31    32    2
    55    30    29    1
    56    30    33    1
    57    27    29   am
    58    27    26    1
    59    83    82    1
    60    83    84    1
    61    34    33    1
    62    34    36    1
    63    26    25    1
    64    84    92   am
    65    84    85    2
    66    98    97   ar
    67   107   105    1
    68    92    93    1
    69   105   104    1
    70    25    19   am
    71    97    99   ar
    72    97    96    1
    73    20    19    2
    74    19    18    1
    75    93    96    1
    76    93    94    1
    77   114   113    1
    78   104   106    1
    79   104   101    1
    80    15    14    1
    81   100   101    1
    82    18    21    1
    83    18    17    1
    84    94    95    2
    85    21    22    1
    86   101   102    1
    87    17    12   am
    88   113   115    1
    89   113   112    1
    90    14    16    1
    91    14    11    1
    92   124   123    1
    93    12    13    2
    94    12    11    1
    95   123   122    1
    96    23    22    1
    97   112   109    1
    98    22    24    1
    99   102   103    2
   100    11    10    1
   101   122   121    1
   102   109   108    1
   103   109   110    1
   104   121   120    1
   105   110   116   am
   106   110   111    2
   107   116   117    1
   108   120   117    1
   109   117   118    1
   110     8     9    1
   111     8     7    1
   112     6     7    1
   113     6     5    1
   114     2     1    1
   115     2     5    1
   116     2     3    1
   117   118   119    2
   118     3     4    2
