@<TRIPOS>MOLECULE
tmp/2qt6A01.pdb
 108 102 0 0 0
SMALL
GASTEIGER

@<TRIPOS>ATOM
      1  N         32.9750    0.6820   22.7100 N.3   318  GLN318     -0.1231
      2  CA        31.5560    0.6740   22.3420 C.3   318  GLN318      0.1698
      3  C         31.3460   -0.5940   21.5790 C.2   318  GLN318      0.2592
      4  O         32.1750   -0.9530   20.7290 O.2   318  GLN318     -0.2718
      5  CB        31.1560    1.9020   21.5060 C.3   318  GLN318      0.0381
      6  CG        31.0950    3.2320   22.3240 C.3   318  GLN318      0.0905
      7  CD        30.2800    4.3040   21.6200 C.2   318  GLN318      0.2608
      8  OE1       29.1680    4.0460   21.0760 O.2   318  GLN318     -0.2717
      9  NE2       30.7990    5.5170   21.6310 N.am  318  GLN318     -0.0878
     10  N         30.3030   -1.3400   21.9370 N.am  319  GLY319     -0.1957
     11  CA        30.0630   -2.6140   21.2660 C.3   319  GLY319      0.1869
     12  C         31.0480   -3.7060   21.6420 C.2   319  GLY319      0.2309
     13  O         31.2120   -4.6950   20.9040 O.2   319  GLY319     -0.2863
     14  N         25.7060   -7.3540   21.8480 N.3   324  ASN324     -0.1225
     15  CA        25.4710   -5.9270   21.9350 C.3   324  ASN324      0.1785
     16  C         24.1040   -5.6420   21.3340 C.2   324  ASN324      0.2597
     17  O         23.8830   -5.8760   20.1300 O.2   324  ASN324     -0.2718
     18  CB        26.5790   -5.1660   21.1860 C.3   324  ASN324      0.1169
     19  CG        27.9740   -5.5460   21.7000 C.2   324  ASN324      0.2627
     20  OD1       28.4560   -4.9950   22.6990 O.2   324  ASN324     -0.2716
     21  ND2       28.6020   -6.5380   21.0590 N.am  324  ASN324     -0.0877
     22  N         23.1870   -5.1550   22.1730 N.am  325  LEU325     -0.1966
     23  CA        21.8020   -4.8960   21.7390 C.3   325  LEU325      0.1728
     24  C         21.5080   -3.4160   21.8500 C.2   325  LEU325      0.2616
     25  O         21.9560   -2.7490   22.7980 O.2   325  LEU325     -0.2715
     26  CB        20.8020   -5.6450   22.6170 C.3   325  LEU325      0.0311
     27  CG        21.0030   -7.1380   22.7390 C.3   325  LEU325      0.0022
     28  CD1       19.9750   -7.7060   23.7200 C.3   325  LEU325      0.0001
     29  CD2       20.8210   -7.7990   21.3740 C.3   325  LEU325      0.0001
     30  N         20.7480   -2.8840   20.9070 N.am  326  ASN326     -0.1972
     31  CA        20.3080   -1.5030   20.9890 C.3   326  ASN326      0.1688
     32  C         18.8100   -1.5170   21.0870 C.2   326  ASN326      0.2292
     33  O         18.1510   -2.3170   20.3900 O.2   326  ASN326     -0.2864
     34  CB        20.7060   -0.7250   19.7110 C.3   326  ASN326      0.1181
     35  CG        20.2840    0.7180   19.7720 C.2   326  ASN326      0.2629
     36  OD1       20.8570    1.5360   20.4890 O.2   326  ASN326     -0.2716
     37  ND2       19.2570    1.0590   18.9980 N.am  326  ASN326     -0.0877
     38  N         25.9550   -5.8330   26.3640 N.3   380  GLU380     -0.1245
     39  CA        25.8430   -4.3920   26.3480 C.3   380  GLU380      0.1567
     40  C         24.4790   -4.0350   25.7930 C.2   380  GLU380      0.2260
     41  O         24.0700   -4.5960   24.7620 O.2   380  GLU380     -0.2867
     42  CB        26.9310   -3.7630   25.4860 C.3   380  GLU380      0.0388
     43  CG        26.7540   -2.2430   25.3190 C.3   380  GLU380      0.1160
     44  CD        28.0060   -1.5560   24.8470 C.2   380  GLU380      0.3649
     45  OE1       28.9970   -1.5050   25.6240 O.co2 380  GLU380     -0.2457
     46  OE2       28.0140   -1.0060   23.7180 O.co2 380  GLU380     -0.2457
     47  N         22.1590   -0.5290   24.8200 N.3   382  THR382     -0.1218
     48  CA        22.0670    0.9220   24.7100 C.3   382  THR382      0.1862
     49  C         20.6050    1.3220   24.5540 C.2   382  THR382      0.2287
     50  O         19.7980    0.5640   23.9730 O.2   382  THR382     -0.2866
     51  CB        22.8950    1.4710   23.5200 C.3   382  THR382      0.1770
     52  OG1       22.5870    0.7330   22.3140 O.3   382  THR382     -0.2211
     53  CG2       24.3850    1.2970   23.8640 C.3   382  THR382      0.0375
     54  N         19.2910    4.6810   23.3620 N.3   384  PRO384     -0.2102
     55  CA        19.4650    6.0770   22.9540 C.3   384  PRO384      0.1504
     56  C         18.1990    6.9120   23.0920 C.2   384  PRO384      0.2575
     57  O         17.1250    6.5160   22.6400 O.2   384  PRO384     -0.2718
     58  CB        19.8880    5.9770   21.4790 C.3   384  PRO384      0.0282
     59  CG        19.6250    4.5820   21.0440 C.3   384  PRO384      0.0208
     60  CD        19.6320    3.7250   22.3010 C.3   384  PRO384      0.0893
     61  N         18.3260    8.0990   23.6730 N.am  385  ALA385     -0.1980
     62  CA        17.1610    8.9630   23.8500 C.3   385  ALA385      0.1597
     63  C         16.7440    9.4890   22.4960 C.2   385  ALA385      0.2287
     64  O         17.5880    9.7910   21.6370 O.2   385  ALA385     -0.2864
     65  CB        17.5230   10.1120   24.7450 C.3   385  ALA385      0.0319
     66  N         27.6880    4.4170   30.5810 N.3   407  ARG407     -0.1245
     67  CA        27.4230    5.8040   30.2250 C.3   407  ARG407      0.1563
     68  C         26.0910    6.2360   30.8190 C.2   407  ARG407      0.2260
     69  O         25.0680    5.5900   30.5700 O.2   407  ARG407     -0.2867
     70  CB        27.4320    6.0120   28.7030 C.3   407  ARG407      0.0307
     71  CG        27.1100    7.4250   28.3300 C.3   407  ARG407      0.0489
     72  CD        27.3260    7.6850   26.8130 C.3   407  ARG407      0.2205
     73  NE        26.8480    9.0370   26.4700 N.pl3 407  ARG407     -0.0865
     74  CZ        26.6600    9.4830   25.2240 C.cat 407  ARG407      0.5346
     75  NH1       26.9400    8.7050   24.1880 N.pl3 407  ARG407      0.1354
     76  NH2       26.1830   10.7050   25.0170 N.pl3 407  ARG407      0.1354
     77  N         32.3340    7.2490   28.7820 N.3   414  TYR414     -0.1241
     78  CA        32.1710    5.8170   29.0110 C.3   414  TYR414      0.1605
     79  C         33.1590    5.4060   30.0500 C.2   414  TYR414      0.2264
     80  O         34.3700    5.5640   29.8590 O.2   414  TYR414     -0.2867
     81  CB        32.4460    5.0350   27.7150 C.3   414  TYR414      0.0534
     82  CG        31.3720    5.2820   26.6730 C.ar  414  TYR414     -0.0201
     83  CD1       31.3840    6.4310   25.8800 C.ar  414  TYR414     -0.0009
     84  CD2       30.3120    4.3770   26.5260 C.ar  414  TYR414     -0.0009
     85  CE1       30.3590    6.6770   24.9640 C.ar  414  TYR414      0.0417
     86  CE2       29.2950    4.6130   25.5930 C.ar  414  TYR414      0.0417
     87  CZ        29.3380    5.7590   24.8130 C.ar  414  TYR414      0.1957
     88  OH        28.3130    6.0370   23.9130 O.3   414  TYR414     -0.2866
     89  N         21.5150   14.5150   23.6800 N.3   433  GLY433     -0.1210
     90  CA        22.1600   13.5140   22.8380 C.3   433  GLY433      0.1956
     91  C         22.5320   12.2840   23.6620 C.2   433  GLY433      0.2612
     92  O         23.5520   11.6440   23.4190 O.2   433  GLY433     -0.2717
     93  N         21.6990   11.9420   24.6420 N.am  434  ASP434     -0.1959
     94  CA        22.0640   10.8200   25.5220 C.3   434  ASP434      0.1840
     95  C         22.0730    9.4710   24.8130 C.2   434  ASP434      0.2622
     96  O         21.2980    9.2200   23.8790 O.2   434  ASP434     -0.2715
     97  CB        21.1090   10.7760   26.7240 C.3   434  ASP434      0.1450
     98  CG        21.4310   11.8550   27.7620 C.2   434  ASP434      0.3671
     99  OD1       22.6360   12.0880   28.0150 O.co2 434  ASP434     -0.2456
    100  OD2       20.5140   12.4770   28.3650 O.co2 434  ASP434     -0.2456
    101  N         22.9550    8.5810   25.2880 N.am  435  ASN435     -0.1972
    102  CA        22.9590    7.2200   24.8110 C.3   435  ASN435      0.1688
    103  C         23.3760    6.3400   25.9660 C.2   435  ASN435      0.2292
    104  O         24.5050    5.8090   26.0180 O.2   435  ASN435     -0.2864
    105  CB        23.8850    7.0650   23.5850 C.3   435  ASN435      0.1181
    106  CG        23.6820    5.7470   22.8240 C.2   435  ASN435      0.2629
    107  OD1       24.4020    5.4430   21.8310 O.2   435  ASN435     -0.2716
    108  ND2       22.7100    4.9780   23.2470 N.am  435  ASN435     -0.0877
@<TRIPOS>BOND
     1    37    35   am
     2    34    35    1
     3    34    31    1
     4    35    36    2
     5    17    16    2
     6    33    32    2
     7     4     3    2
     8    13    12    2
     9    30    31    1
    10    30    24   am
    11    31    32    1
    12    59    58    1
    13    59    60    1
    14    21    19   am
    15     8     7    2
    16    18    19    1
    17    18    15    1
    18    11    12    1
    19    11    10    1
    20    16    15    1
    21    16    22   am
    22    29    27    1
    23    58    55    1
    24     5     6    1
    25     5     2    1
    26     3    10   am
    27     3     2    1
    28     7     9   am
    29     7     6    1
    30    64    63    2
    31    19    20    2
    32    23    24    1
    33    23    22    1
    34    23    26    1
    35   107   106    2
    36    14    15    1
    37    24    25    2
    38    60    54    1
    39    52    51    1
    40     2     1    1
    41    63    62    1
    42    26    27    1
    43    57    56    2
    44    27    28    1
    45   106   108   am
    46   106   105    1
    47    90    91    1
    48    90    89    1
    49    55    56    1
    50    55    54    1
    51    56    61   am
    52    92    91    2
    53    51    53    1
    54    51    48    1
    55   105   102    1
    56    91    93   am
    57    61    62    1
    58    46    44   ar
    59    62    65    1
    60    96    95    2
    61    88    87    1
    62    50    49    2
    63    75    74    1
    64    49    48    1
    65    93    94    1
    66    48    47    1
    67    41    40    2
    68   102   101    1
    69   102   103    1
    70    95   101   am
    71    95    94    1
    72    87    85   ar
    73    87    86   ar
    74    44    43    1
    75    44    45   ar
    76    85    83   ar
    77    76    74    1
    78    74    73    2
    79    43    42    1
    80    42    39    1
    81    94    97    1
    82    86    84   ar
    83    40    39    1
    84    83    82   ar
    85   103   104    2
    86    39    38    1
    87    73    72    1
    88    84    82   ar
    89    82    81    1
    90    97    98    1
    91    72    71    1
    92    81    78    1
    93    98    99   ar
    94    98   100   ar
    95    71    70    1
    96    70    67    1
    97    77    78    1
    98    78    79    1
    99    80    79    2
   100    67    66    1
   101    67    68    1
   102    69    68    2
