@<TRIPOS>MOLECULE
tmp/2qt6B01.pdb
 107 105 0 0 0
SMALL
GASTEIGER

@<TRIPOS>ATOM
      1  N         67.9390   57.7400    7.8620 N.3    14  ASN14      -0.1240
      2  CA        67.9770   57.6040    6.4280 C.3    14  ASN14       0.1653
      3  C         66.9950   56.4920    6.0740 C.2    14  ASN14       0.2266
      4  O         67.0620   55.3940    6.6360 O.2    14  ASN14      -0.2867
      5  CB        69.3910   57.1990    6.0120 C.3    14  ASN14       0.1155
      6  CG        70.3980   58.2450    6.3480 C.2    14  ASN14       0.2627
      7  OD1       70.1610   59.4500    6.2090 O.2    14  ASN14      -0.2716
      8  ND2       71.5810   57.7870    6.7910 N.am   14  ASN14      -0.0877
      9  N         64.6440   54.7890   -2.8650 N.3    20  PHE20      -0.1227
     10  CA        65.7160   55.7630   -2.9560 C.3    20  PHE20       0.1736
     11  C         66.0200   56.2230   -1.5470 C.2    20  PHE20       0.2595
     12  O         65.0990   56.5230   -0.7960 O.2    20  PHE20      -0.2718
     13  CB        65.2840   56.9590   -3.7770 C.3    20  PHE20       0.0547
     14  CG        66.2790   58.0630   -3.7750 C.ar   20  PHE20      -0.0202
     15  CD1       67.4300   57.9770   -4.5550 C.ar   20  PHE20      -0.0042
     16  CD2       66.0960   59.1870   -2.9750 C.ar   20  PHE20      -0.0042
     17  CE1       68.3710   58.9850   -4.5590 C.ar   20  PHE20      -0.0003
     18  CE2       67.0360   60.2170   -2.9760 C.ar   20  PHE20      -0.0003
     19  CZ        68.1830   60.1120   -3.7620 C.ar   20  PHE20      -0.0000
     20  N         67.2950   56.2390   -1.1600 N.am   21  GLU21      -0.1965
     21  CA        67.6300   56.5570    0.2370 C.3    21  GLU21       0.1733
     22  C         67.8160   58.0400    0.4770 C.2    21  GLU21       0.2616
     23  O         68.5370   58.6850   -0.2530 O.2    21  GLU21      -0.2715
     24  CB        68.9250   55.8380    0.6640 C.3    21  GLU21       0.0429
     25  CG        69.2040   56.1470    2.1480 C.3    21  GLU21       0.1163
     26  CD        70.3330   55.3570    2.7520 C.2    21  GLU21       0.3649
     27  OE1       70.0770   54.2230    3.2030 O.co2  21  GLU21      -0.2457
     28  OE2       71.4480   55.9260    2.8440 O.co2  21  GLU21      -0.2457
     29  N         67.1180   58.6020    1.4960 N.am   22  ARG22      -0.1963
     30  CA        67.3810   60.0010    1.8740 C.3    22  ARG22       0.1729
     31  C         67.2430   60.1670    3.3810 C.2    22  ARG22       0.2616
     32  O         66.5850   59.3880    4.0630 O.2    22  ARG22      -0.2715
     33  CB        66.4590   60.9890    1.1530 C.3    22  ARG22       0.0348
     34  CG        64.9470   60.7860    1.4790 C.3    22  ARG22       0.0492
     35  CD        64.2080   62.0680    1.1690 C.3    22  ARG22       0.2205
     36  NE        64.3850   63.0250    2.2920 N.pl3  22  ARG22      -0.0865
     37  CZ        63.6880   64.1460    2.4310 C.cat  22  ARG22       0.5346
     38  NH1       62.7850   64.5150    1.5270 N.pl3  22  ARG22       0.1354
     39  NH2       63.9250   64.9510    3.4810 N.pl3  22  ARG22       0.1354
     40  N         67.8960   61.2310    3.8610 N.am   23  ALA23      -0.1977
     41  CA        67.7680   61.6600    5.2560 C.3    23  ALA23       0.1597
     42  C         66.3650   62.2270    5.4450 C.2    23  ALA23       0.2287
     43  O         65.9080   63.0170    4.6240 O.2    23  ALA23      -0.2864
     44  CB        68.8180   62.7450    5.5550 C.3    23  ALA23       0.0319
     45  N         69.5700   67.0520   12.7790 N.3    54  ASN54      -0.1225
     46  CA        69.8170   67.6590   11.4940 C.3    54  ASN54       0.1785
     47  C         69.3080   69.0900   11.3960 C.2    54  ASN54       0.2597
     48  O         68.0890   69.3360   11.3400 O.2    54  ASN54      -0.2718
     49  CB        69.2600   66.7370   10.3690 C.3    54  ASN54       0.1169
     50  CG        69.6240   67.2060    9.0000 C.2    54  ASN54       0.2627
     51  OD1       69.4340   68.3730    8.6640 O.2    54  ASN54      -0.2716
     52  ND2       70.2150   66.2760    8.1510 N.am   54  ASN54      -0.0877
     53  N         70.2390   70.0380   11.3920 N.am   55  HIS55      -0.1961
     54  CA        69.9150   71.4550   11.3190 C.3    55  HIS55       0.1787
     55  C         69.1700   71.8670   10.0400 C.2    55  HIS55       0.2621
     56  O         68.3240   72.7640   10.0330 O.2    55  HIS55      -0.2715
     57  CB        71.2110   72.2950   11.5370 C.3    55  HIS55       0.0785
     58  CG        72.2140   72.1950   10.4190 C.ar   55  HIS55       0.0821
     59  ND1       73.0820   71.1310   10.2920 N.ar   55  HIS55      -0.2267
     60  CD2       72.5190   73.0490    9.4090 C.ar   55  HIS55       0.1154
     61  CE1       73.8570   71.3180    9.2350 C.ar   55  HIS55       0.1986
     62  NE2       73.5410   72.4730    8.6810 N.ar   55  HIS55      -0.2212
     63  N         69.4560   71.1810    8.9270 N.am   56  THR56      -0.1937
     64  CA        68.8590   71.6020    7.6530 C.3    56  THR56       0.2028
     65  C         67.3470   71.2800    7.6420 C.2    56  THR56       0.2642
     66  O         66.5780   71.9990    7.0040 O.2    56  THR56      -0.2714
     67  CB        69.5660   70.8950    6.4860 C.3    56  THR56       0.1808
     68  OG1       70.9370   71.3360    6.4950 O.3    56  THR56      -0.2208
     69  CG2       68.9390   71.2610    5.1810 C.3    56  THR56       0.0379
     70  N         66.9800   70.2150    8.3450 N.am   57  MET57      -0.1976
     71  CA        65.5520   69.8050    8.4130 C.3    57  MET57       0.1605
     72  C         64.8800   70.3850    9.6580 C.2    57  MET57       0.2287
     73  O         63.7000   70.1180    9.9140 O.2    57  MET57      -0.2864
     74  CB        65.4260   68.2970    8.3960 C.3    57  MET57       0.0413
     75  CG        66.0440   67.7240    7.0920 C.3    57  MET57       0.0598
     76  SD        65.6170   66.0560    6.6040 S.3    57  MET57      -0.1393
     77  CE        66.6640   65.1040    7.6910 C.3    57  MET57       0.0692
     78  N         62.7500   63.6340   -3.1650 N.3   153  HIS153     -0.1226
     79  CA        64.0850   63.1180   -3.0140 C.3   153  HIS153      0.1752
     80  C         65.0290   64.1740   -2.4640 C.2   153  HIS153      0.2596
     81  O         66.0730   63.8020   -1.9050 O.2   153  HIS153     -0.2718
     82  CB        64.5590   62.5240   -4.3350 C.3   153  HIS153      0.0759
     83  CG        63.8350   61.2740   -4.6740 C.ar  153  HIS153      0.0818
     84  ND1       64.0030   60.6200   -5.8810 N.ar  153  HIS153     -0.2268
     85  CD2       62.9740   60.5230   -3.9460 C.ar  153  HIS153      0.1154
     86  CE1       63.2540   59.5300   -5.8870 C.ar  153  HIS153      0.1986
     87  NE2       62.6140   59.4470   -4.7320 N.ar  153  HIS153     -0.2212
     88  N         64.6500   65.4450   -2.6210 N.am  154  VAL154     -0.1966
     89  CA        65.4330   66.5700   -2.0800 C.3   154  VAL154      0.1727
     90  C         64.6310   67.2140   -0.9450 C.2   154  VAL154      0.2616
     91  O         63.4100   67.4500   -1.0900 O.2   154  VAL154     -0.2715
     92  CB        65.7710   67.5580   -3.1830 C.3   154  VAL154      0.0290
     93  CG1       66.3970   68.8630   -2.6450 C.3   154  VAL154      0.0023
     94  CG2       66.7430   66.8780   -4.1620 C.3   154  VAL154      0.0023
     95  N         65.3160   67.5000    0.1650 N.am  155  ALA155     -0.1977
     96  CA        64.6730   68.0290    1.3970 C.3   155  ALA155      0.1597
     97  C         63.9690   69.3460    1.1900 C.2   155  ALA155      0.2287
     98  O         64.2950   70.1370    0.2860 O.2   155  ALA155     -0.2864
     99  CB        65.7220   68.1690    2.4960 C.3   155  ALA155      0.0319
    100  N         66.0500   72.4280    0.7760 N.3   158  LEU158     -0.1245
    101  CA        67.1520   72.3320   -0.1910 C.3   158  LEU158      0.1561
    102  C         66.6590   72.3410   -1.6200 C.2   158  LEU158      0.2260
    103  O         67.4200   72.6590   -2.5460 O.2   158  LEU158     -0.2867
    104  CB        67.9980   71.0810    0.0740 C.3   158  LEU158      0.0270
    105  CG        68.7530   70.9680    1.4030 C.3   158  LEU158      0.0019
    106  CD1       69.4820   69.6260    1.5350 C.3   158  LEU158      0.0001
    107  CD2       69.7200   72.1700    1.6030 C.3   158  LEU158      0.0001
@<TRIPOS>BOND
     1    86    84   ar
     2    86    87   ar
     3    84    83   ar
     4    87    85   ar
     5    83    82    1
     6    83    85   ar
     7    17    15   ar
     8    17    19   ar
     9    15    14   ar
    10    82    79    1
    11    94    92    1
    12    13    14    1
    13    13    10    1
    14    14    16   ar
    15    19    18   ar
    16    92    93    1
    17    92    89    1
    18    78    79    1
    19    79    80    1
    20    18    16   ar
    21    10     9    1
    22    10    11    1
    23    88    80   am
    24    88    89    1
    25   103   102    2
    26    80    81    2
    27    89    90    1
    28   102   101    1
    29    11    20   am
    30    11    12    2
    31    20    21    1
    32    91    90    2
    33    90    95   am
    34    23    22    2
    35   101   104    1
    36   101   100    1
    37   104   105    1
    38    95    96    1
    39    21    22    1
    40    21    24    1
    41    98    97    2
    42    22    29   am
    43    24    25    1
    44    33    34    1
    45    33    30    1
    46    35    34    1
    47    35    36    1
    48    97    96    1
    49    96    99    1
    50   105   106    1
    51   105   107    1
    52    29    30    1
    53    38    37    1
    54    30    31    1
    55    25    26    1
    56    36    37    2
    57    37    39    1
    58    26    28   ar
    59    26    27   ar
    60    31    40   am
    61    31    32    2
    62    40    41    1
    63    43    42    2
    64    69    67    1
    65    41    42    1
    66    41    44    1
    67     5     6    1
    68     5     2    1
    69     3     2    1
    70     3     4    2
    71     7     6    2
    72     6     8   am
    73     2     1    1
    74    67    68    1
    75    67    64    1
    76    76    75    1
    77    76    77    1
    78    66    65    2
    79    75    74    1
    80    65    64    1
    81    65    70   am
    82    64    63    1
    83    52    50   am
    84    70    71    1
    85    74    71    1
    86    71    72    1
    87    51    50    2
    88    62    61   ar
    89    62    60   ar
    90    63    55   am
    91    50    49    1
    92    61    59   ar
    93    60    58   ar
    94    72    73    2
    95    56    55    2
    96    55    54    1
    97    59    58   ar
    98    49    46    1
    99    58    57    1
   100    54    53    1
   101    54    57    1
   102    48    47    2
   103    53    47   am
   104    47    46    1
   105    46    45    1
