@<TRIPOS>MOLECULE
tmp/2qt6A00.pdb
 111 107 0 0 0
SMALL
GASTEIGER

@<TRIPOS>ATOM
      1  N        -11.0510    2.7150   51.4480 N.3    14  ASN14      -0.1240
      2  CA       -11.0420    4.1170   51.1810 C.3    14  ASN14       0.1653
      3  C        -10.0300    4.8000   52.1070 C.2    14  ASN14       0.2266
      4  O        -10.0610    4.5940   53.3170 O.2    14  ASN14      -0.2867
      5  CB       -12.4450    4.6670   51.4320 C.3    14  ASN14       0.1155
      6  CG       -13.4750    4.0210   50.5410 C.2    14  ASN14       0.2627
      7  OD1      -13.2210    3.7350   49.3820 O.2    14  ASN14      -0.2716
      8  ND2      -14.6520    3.7470   51.1040 N.am   14  ASN14      -0.0877
      9  N         -7.7210   13.9420   50.9080 N.3    20  PHE20      -0.1241
     10  CA        -8.8290   13.6710   49.9820 C.3    20  PHE20       0.1605
     11  C         -9.1180   12.1730   50.0010 C.2    20  PHE20       0.2264
     12  O         -8.1850   11.3600   49.9030 O.2    20  PHE20      -0.2867
     13  CB        -8.4690   14.1390   48.5710 C.3    20  PHE20       0.0534
     14  CG        -9.4940   13.7720   47.5310 C.ar   20  PHE20      -0.0203
     15  CD1      -10.6740   14.5000   47.4140 C.ar   20  PHE20      -0.0042
     16  CD2       -9.2650   12.6910   46.6750 C.ar   20  PHE20      -0.0042
     17  CE1      -11.6260   14.1330   46.4610 C.ar   20  PHE20      -0.0003
     18  CE2      -10.1780   12.3100   45.7350 C.ar   20  PHE20      -0.0003
     19  CZ       -11.3800   13.0480   45.6080 C.ar   20  PHE20      -0.0000
     20  N        -10.2350    8.5780   48.6690 N.3    22  ARG22      -0.1231
     21  CA       -10.5040    7.7700   47.4580 C.3    22  ARG22       0.1694
     22  C        -10.3570    6.2880   47.7440 C.2    22  ARG22       0.2591
     23  O         -9.6350    5.8610   48.6470 O.2    22  ARG22      -0.2718
     24  CB        -9.6050    8.1910   46.2800 C.3    22  ARG22       0.0321
     25  CG        -8.0750    7.9560   46.5530 C.3    22  ARG22       0.0489
     26  CD        -7.3450    7.8450   45.2210 C.3    22  ARG22       0.2205
     27  NE        -7.4750    6.4610   44.7170 N.pl3  22  ARG22      -0.0865
     28  CZ        -6.8060    5.9690   43.6670 C.cat  22  ARG22       0.5346
     29  NH1       -5.9920    6.7490   42.9640 N.pl3  22  ARG22       0.1354
     30  NH2       -7.0210    4.7080   43.2890 N.pl3  22  ARG22       0.1354
     31  N        -11.0350    5.4790   46.9280 N.am   23  ALA23      -0.1980
     32  CA       -10.8460    4.0410   46.9540 C.3    23  ALA23       0.1597
     33  C         -9.4500    3.6590   46.4470 C.2    23  ALA23       0.2287
     34  O         -8.9600    4.2330   45.4780 O.2    23  ALA23      -0.2864
     35  CB       -11.8960    3.3780   46.0930 C.3    23  ALA23       0.0319
     36  N        -12.6410   -4.8160   44.0320 N.3    54  ASN54      -0.1225
     37  CA       -12.9240   -3.7370   43.1060 C.3    54  ASN54       0.1785
     38  C        -12.4220   -4.0520   41.6900 C.2    54  ASN54       0.2597
     39  O        -11.2080   -4.0660   41.4160 O.2    54  ASN54      -0.2718
     40  CB       -12.3270   -2.4170   43.6320 C.3    54  ASN54       0.1169
     41  CG       -12.7570   -1.2450   42.8100 C.2    54  ASN54       0.2627
     42  OD1      -12.5750   -1.2260   41.5910 O.2    54  ASN54      -0.2716
     43  ND2      -13.3260   -0.2290   43.4690 N.am   54  ASN54      -0.0877
     44  N        -13.3550   -4.3510   40.7900 N.am   55  HIS55      -0.1961
     45  CA       -12.9750   -4.7390   39.4290 C.3    55  HIS55       0.1787
     46  C        -12.2450   -3.6270   38.6510 C.2    55  HIS55       0.2621
     47  O        -11.3690   -3.8940   37.7910 O.2    55  HIS55      -0.2715
     48  CB       -14.2340   -5.2060   38.6290 C.3    55  HIS55       0.0785
     49  CG       -15.2940   -4.1490   38.4980 C.ar   55  HIS55       0.0821
     50  ND1      -16.1350   -3.8250   39.5400 N.ar   55  HIS55      -0.2267
     51  CD2      -15.6400   -3.3270   37.4670 C.ar   55  HIS55       0.1154
     52  CE1      -16.9470   -2.8440   39.1660 C.ar   55  HIS55       0.1986
     53  NE2      -16.6810   -2.5320   37.9100 N.ar   55  HIS55      -0.2212
     54  N        -12.5560   -2.3610   38.9600 N.am   56  THR56      -0.1937
     55  CA       -11.9520   -1.2430   38.2440 C.3    56  THR56       0.2028
     56  C        -10.4420   -1.1390   38.5680 C.2    56  THR56       0.2642
     57  O         -9.6720   -0.7030   37.7240 O.2    56  THR56      -0.2714
     58  CB       -12.7010    0.0790   38.5500 C.3    56  THR56       0.1808
     59  OG1      -14.0540   -0.0910   38.0760 O.3    56  THR56      -0.2208
     60  CG2      -12.0500    1.2970   37.8550 C.3    56  THR56       0.0379
     61  N        -10.0520   -1.5270   39.7830 N.am   57  MET57      -0.1976
     62  CA        -8.6320   -1.4800   40.1520 C.3    57  MET57       0.1605
     63  C         -7.9650   -2.8410   39.9760 C.2    57  MET57       0.2287
     64  O         -6.7840   -2.9960   40.3060 O.2    57  MET57      -0.2864
     65  CB        -8.4740   -0.9160   41.5630 C.3    57  MET57       0.0413
     66  CG        -9.0560    0.4950   41.6240 C.3    57  MET57       0.0598
     67  SD        -8.7200    1.4070   43.1430 S.3    57  MET57      -0.1393
     68  CE        -9.7520    0.4860   44.3020 C.3    57  MET57       0.0692
     69  N         -5.8550   11.5180   42.3810 N.3   153  HIS153     -0.1226
     70  CA        -7.2260   11.5240   42.8940 C.3   153  HIS153      0.1752
     71  C         -8.1670   10.6580   42.0790 C.2   153  HIS153      0.2596
     72  O         -9.1810   10.1810   42.6330 O.2   153  HIS153     -0.2718
     73  CB        -7.7110   12.9670   43.0230 C.3   153  HIS153      0.0759
     74  CG        -7.0210   13.6950   44.1270 C.ar  153  HIS153      0.0818
     75  ND1       -7.1720   15.0510   44.3570 N.ar  153  HIS153     -0.2268
     76  CD2       -6.1530   13.2470   45.0680 C.ar  153  HIS153      0.1154
     77  CE1       -6.4230   15.4000   45.3940 C.ar  153  HIS153      0.1986
     78  NE2       -5.7940   14.3290   45.8450 N.ar  153  HIS153     -0.2212
     79  N         -7.8050   10.3960   40.8110 N.am  154  VAL154     -0.1966
     80  CA        -8.5850    9.5320   39.9280 C.3   154  VAL154      0.1727
     81  C         -7.7700    8.2620   39.6800 C.2   154  VAL154      0.2616
     82  O         -6.5450    8.3490   39.4110 O.2   154  VAL154     -0.2715
     83  CB        -8.9240   10.2610   38.6350 C.3   154  VAL154      0.0290
     84  CG1       -9.6300    9.3330   37.6610 C.3   154  VAL154      0.0023
     85  CG2       -9.8000   11.4960   38.9770 C.3   154  VAL154      0.0023
     86  N         -8.4500    7.1120   39.7570 N.am  155  ALA155     -0.1977
     87  CA        -7.8030    5.8010   39.6390 C.3   155  ALA155      0.1597
     88  C         -7.1180    5.5820   38.2960 C.2   155  ALA155      0.2287
     89  O         -7.4190    6.2390   37.3080 O.2   155  ALA155     -0.2864
     90  CB        -8.8010    4.6600   39.9220 C.3   155  ALA155      0.0319
     91  N         -9.1970    4.9540   35.3060 N.3   158  LEU158     -0.1245
     92  CA       -10.2610    5.9810   35.0860 C.3   158  LEU158      0.1561
     93  C         -9.7730    7.3170   34.5770 C.2   158  LEU158      0.2260
     94  O        -10.5470    8.0790   33.9810 O.2   158  LEU158     -0.2867
     95  CB       -11.0670    6.1790   36.3720 C.3   158  LEU158      0.0270
     96  CG       -11.8090    4.9380   36.8410 C.3   158  LEU158      0.0019
     97  CD1      -12.5790    5.2770   38.1380 C.3   158  LEU158      0.0001
     98  CD2      -12.7700    4.4040   35.7450 C.3   158  LEU158      0.0001
     99  N         -5.5110   21.3520   46.6080 N.3   179  SER179     -0.1202
    100  CA        -6.8440   21.4480   47.1950 C.3   179  SER179      0.2020
    101  C         -6.8980   21.0350   48.6790 C.2   179  SER179      0.2619
    102  O         -7.9350   21.1880   49.3290 O.2   179  SER179     -0.2717
    103  CB        -7.8650   20.6860   46.3310 C.3   179  SER179      0.2103
    104  OG        -7.7220   19.2940   46.5030 O.3   179  SER179     -0.2182
    105  N         -5.7820   20.5260   49.2280 N.am  180  THR180     -0.1952
    106  CA        -5.7220   20.1470   50.6390 C.3   180  THR180      0.1897
    107  C         -4.4740   20.7620   51.3160 C.2   180  THR180      0.2313
    108  O         -3.6240   20.0450   51.8750 O.2   180  THR180     -0.2863
    109  CB        -5.7390   18.6330   50.8430 C.3   180  THR180      0.1794
    110  OG1       -4.6990   18.0490   50.0360 O.3   180  THR180     -0.2208
    111  CG2       -7.0980   18.0300   50.3950 C.3   180  THR180      0.0378
@<TRIPOS>BOND
     1    94    93    2
     2    93    92    1
     3    92    91    1
     4    92    95    1
     5    98    96    1
     6    95    96    1
     7    96    97    1
     8    89    88    2
     9    51    53   ar
    10    51    49   ar
    11    84    83    1
    12    57    56    2
    13    47    46    2
    14    60    58    1
    15    53    52   ar
    16    59    58    1
    17    55    58    1
    18    55    56    1
    19    55    54    1
    20    88    87    1
    21    49    48    1
    22    49    50   ar
    23    56    61   am
    24    48    45    1
    25    83    85    1
    26    83    80    1
    27    46    54   am
    28    46    45    1
    29    52    50   ar
    30    82    81    2
    31    45    44    1
    32    87    86    1
    33    87    90    1
    34    81    86   am
    35    81    80    1
    36    61    62    1
    37    80    79    1
    38    63    62    1
    39    63    64    2
    40    62    65    1
    41    44    38   am
    42    79    71   am
    43    39    38    2
    44    65    66    1
    45    42    41    2
    46    66    67    1
    47    38    37    1
    48    71    72    2
    49    71    70    1
    50    69    70    1
    51    41    43   am
    52    41    40    1
    53    70    73    1
    54    29    28    1
    55    73    74    1
    56    37    40    1
    57    37    36    1
    58    67    68    1
    59    30    28    1
    60    28    27    2
    61    74    75   ar
    62    74    76   ar
    63    75    77   ar
    64    27    26    1
    65    76    78   ar
    66    26    25    1
    67    77    78   ar
    68    34    33    2
    69    19    18   ar
    70    19    17   ar
    71    18    16   ar
    72    35    32    1
    73    24    25    1
    74    24    21    1
    75   103   104    1
    76   103   100    1
    77    33    32    1
    78    17    15   ar
    79    99   100    1
    80    16    14   ar
    81    31    32    1
    82    31    22   am
    83   100   101    1
    84    15    14   ar
    85    21    22    1
    86    21    20    1
    87    14    13    1
    88    22    23    2
    89    13    10    1
    90   101   105   am
    91   101   102    2
    92   105   106    1
    93     7     6    2
    94    12    11    2
    95    10    11    1
    96    10     9    1
    97   110   109    1
    98   111   109    1
    99     6     8   am
   100     6     5    1
   101   106   109    1
   102   106   107    1
   103     2     5    1
   104     2     1    1
   105     2     3    1
   106   107   108    2
   107     3     4    2
