@<TRIPOS>MOLECULE
tmp/2qt9A07.pdb
 185 181 0 0 0
SMALL
GASTEIGER

@<TRIPOS>ATOM
      1  N         37.2850   61.4900   36.3400 N.3    87  ARG87      -0.1231
      2  CA        38.1690   61.0270   37.4020 C.3    87  ARG87       0.1694
      3  C         39.4030   61.9160   37.6100 C.2    87  ARG87       0.2592
      4  O         39.8030   62.1660   38.7520 O.2    87  ARG87      -0.2718
      5  CB        38.5680   59.5530   37.1590 C.3    87  ARG87       0.0321
      6  CG        39.8340   59.1110   37.8560 C.3    87  ARG87       0.0489
      7  CD        39.8810   57.6610   38.3730 C.3    87  ARG87       0.2205
      8  NE        38.9980   56.6780   37.7230 N.pl3  87  ARG87      -0.0865
      9  CZ        38.3680   55.7260   38.4180 C.cat  87  ARG87       0.5346
     10  NH1       38.5410   55.6810   39.7360 N.pl3  87  ARG87       0.1354
     11  NH2       37.5910   54.8220   37.8260 N.pl3  87  ARG87       0.1354
     12  N         39.9980   62.4110   36.5260 N.am   88  HIS88      -0.1976
     13  CA        41.1800   63.2740   36.6500 C.3    88  HIS88       0.1656
     14  C         40.9150   64.7160   36.1530 C.2    88  HIS88       0.2291
     15  O         41.5140   65.6760   36.6470 O.2    88  HIS88      -0.2864
     16  CB        42.3620   62.6780   35.8490 C.3    88  HIS88       0.0771
     17  CG        42.5880   61.2140   36.0910 C.ar   88  HIS88       0.0820
     18  ND1       43.1290   60.7230   37.2630 N.ar   88  HIS88      -0.2267
     19  CD2       42.3090   60.1310   35.3250 C.ar   88  HIS88       0.1154
     20  CE1       43.1710   59.4030   37.2090 C.ar   88  HIS88       0.1986
     21  NE2       42.6770   59.0170   36.0440 N.ar   88  HIS88      -0.2212
     22  N         40.3780   58.2020   31.2240 N.3   167  GLU167     -0.1231
     23  CA        40.0840   57.1410   32.1710 C.3   167  GLU167      0.1699
     24  C         40.8640   55.8370   31.9970 C.2   167  GLU167      0.2592
     25  O         41.3440   55.2670   32.9750 O.2   167  GLU167     -0.2718
     26  CB        38.5820   56.8160   32.1200 C.3   167  GLU167      0.0402
     27  CG        38.1560   55.5460   32.8690 C.3   167  GLU167      0.1161
     28  CD        38.2860   55.6610   34.3870 C.2   167  GLU167      0.3649
     29  OE1       38.3660   56.7950   34.9090 O.co2 167  GLU167     -0.2457
     30  OE2       38.2970   54.6100   35.0640 O.co2 167  GLU167     -0.2457
     31  N         41.0260   55.3980   30.7580 N.am  168  GLU168     -0.1966
     32  CA        41.6310   54.1020   30.4950 C.3   168  GLU168      0.1733
     33  C         43.0650   53.9930   30.0150 C.2   168  GLU168      0.2616
     34  O         43.7160   52.9890   30.2720 O.2   168  GLU168     -0.2715
     35  CB        40.7550   53.3490   29.4890 C.3   168  GLU168      0.0429
     36  CG        39.2770   53.3190   29.8470 C.3   168  GLU168      0.1163
     37  CD        38.9620   52.3730   30.9990 C.2   168  GLU168      0.3649
     38  OE1       39.9010   51.8750   31.6540 O.co2 168  GLU168     -0.2457
     39  OE2       37.7630   52.1450   31.2500 O.co2 168  GLU168     -0.2457
     40  N         43.5510   55.0100   29.3140 N.am  169  VAL169     -0.1977
     41  CA        44.8930   54.9640   28.7450 C.3   169  VAL169      0.1596
     42  C         45.9640   55.7030   29.5390 C.2   169  VAL169      0.2287
     43  O         46.9130   55.0870   30.0180 O.2   169  VAL169     -0.2864
     44  CB        44.8680   55.5080   27.3050 C.3   169  VAL169      0.0276
     45  CG1       46.2780   55.4390   26.6830 C.3   169  VAL169      0.0022
     46  CG2       43.8950   54.6890   26.4710 C.3   169  VAL169      0.0022
     47  N         45.2850   57.8390   32.3350 N.3   171  SER171     -0.1217
     48  CA        44.9380   58.0980   33.7270 C.3   171  SER171      0.1889
     49  C         45.2690   59.5460   34.0410 C.2   171  SER171      0.2288
     50  O         45.8190   59.8440   35.0980 O.2   171  SER171     -0.2866
     51  CB        45.7410   57.2030   34.6710 C.3   171  SER171      0.2089
     52  OG        45.2270   55.8960   34.6500 O.3   171  SER171     -0.2183
     53  N         47.8770   46.9700   32.9490 N.3   319  PHE319     -0.1227
     54  CA        46.7210   47.7190   32.4590 C.3   319  PHE319      0.1736
     55  C         47.0890   48.4340   31.1570 C.2   319  PHE319      0.2595
     56  O         46.2200   48.9790   30.4700 O.2   319  PHE319     -0.2718
     57  CB        46.2370   48.7350   33.4960 C.3   319  PHE319      0.0547
     58  CG        45.5370   48.1090   34.6550 C.ar  319  PHE319     -0.0202
     59  CD1       44.2110   47.7270   34.5480 C.ar  319  PHE319     -0.0042
     60  CD2       46.2140   47.8560   35.8380 C.ar  319  PHE319     -0.0042
     61  CE1       43.5620   47.1030   35.5970 C.ar  319  PHE319     -0.0003
     62  CE2       45.5740   47.2220   36.9070 C.ar  319  PHE319     -0.0003
     63  CZ        44.2470   46.8490   36.7770 C.ar  319  PHE319     -0.0000
     64  N         48.3790   48.4020   30.8180 N.am  320  ARG320     -0.1980
     65  CA        48.9100   49.0140   29.5900 C.3   320  ARG320      0.1597
     66  C         50.3820   48.6350   29.4000 C.2   320  ARG320      0.2287
     67  O         51.0220   48.1610   30.3260 O.2   320  ARG320     -0.2864
     68  CB        48.7910   50.5350   29.6550 C.3   320  ARG320      0.0334
     69  CG        49.6800   51.1930   30.7130 C.3   320  ARG320      0.0492
     70  CD        49.6510   52.7160   30.4950 C.3   320  ARG320      0.2205
     71  NE        50.4580   53.4560   31.4430 N.pl3 320  ARG320     -0.0865
     72  CZ        50.2290   54.7150   31.8160 C.cat 320  ARG320      0.5346
     73  NH1       49.2000   55.3900   31.3250 N.pl3 320  ARG320      0.1354
     74  NH2       51.0520   55.3070   32.6800 N.pl3 320  ARG320      0.1354
     75  N         36.3950   42.4240   44.6720 N.3   509  TYR509     -0.1241
     76  CA        36.5970   43.3150   43.5390 C.3   509  TYR509      0.1605
     77  C         36.8230   42.2920   42.4350 C.2   509  TYR509      0.2264
     78  O         35.9590   42.1100   41.5770 O.2   509  TYR509     -0.2867
     79  CB        37.7970   44.2420   43.6810 C.3   509  TYR509      0.0534
     80  CG        37.8550   45.1810   42.4870 C.ar  509  TYR509     -0.0201
     81  CD1       38.7490   44.9600   41.4390 C.ar  509  TYR509     -0.0009
     82  CD2       36.9190   46.2220   42.3530 C.ar  509  TYR509     -0.0009
     83  CE1       38.7090   45.7380   40.2810 C.ar  509  TYR509      0.0417
     84  CE2       36.8680   47.0090   41.1980 C.ar  509  TYR509      0.0417
     85  CZ        37.7630   46.7520   40.1640 C.ar  509  TYR509      0.1957
     86  OH        37.6610   47.4600   38.9940 O.3   509  TYR509     -0.2866
     87  N         31.5250   48.4180   41.5650 N.3   592  SER592     -0.1202
     88  CA        32.1270   48.4540   40.2310 C.3   592  SER592      0.2020
     89  C         32.3890   47.0150   39.7070 C.2   592  SER592      0.2618
     90  O         31.4590   46.2120   39.6060 O.2   592  SER592     -0.2717
     91  CB        33.4310   49.2740   40.3220 C.3   592  SER592      0.2103
     92  OG        33.8950   49.6660   39.0550 O.3   592  SER592     -0.2182
     93  N         33.6280   46.6740   39.3550 N.am  593  TYR593     -0.1975
     94  CA        33.8700   45.2980   38.9090 C.3   593  TYR593      0.1639
     95  C         33.3950   44.3850   40.0410 C.2   593  TYR593      0.2290
     96  O         32.8620   43.2960   39.8050 O.2   593  TYR593     -0.2864
     97  CB        35.3530   45.0490   38.6210 C.3   593  TYR593      0.0560
     98  CG        35.5900   43.8220   37.7620 C.ar  593  TYR593     -0.0198
     99  CD1       35.4110   42.5260   38.2710 C.ar  593  TYR593     -0.0009
    100  CD2       35.9440   43.9580   36.4140 C.ar  593  TYR593     -0.0009
    101  CE1       35.5740   41.3920   37.4510 C.ar  593  TYR593      0.0417
    102  CE2       36.1100   42.8450   35.5920 C.ar  593  TYR593      0.0417
    103  CZ        35.9220   41.5620   36.1170 C.ar  593  TYR593      0.1957
    104  OH        36.1080   40.4770   35.2980 O.3   593  TYR593     -0.2866
    105  N         28.9000   46.4550   36.6360 N.3   618  VAL618     -0.1245
    106  CA        28.8980   46.2970   35.2070 C.3   618  VAL618      0.1561
    107  C         27.8930   45.1210   35.1110 C.2   618  VAL618      0.2260
    108  O         27.8580   44.2670   36.0090 O.2   618  VAL618     -0.2867
    109  CB        30.2690   45.8540   34.7210 C.3   618  VAL618      0.0252
    110  CG1       30.1450   45.1530   33.3340 C.3   618  VAL618      0.0019
    111  CG2       31.1620   47.0840   34.6100 C.3   618  VAL618      0.0019
    112  N         29.1900   43.2650   29.2760 N.3   621  TRP621     -0.1241
    113  CA        30.3740   43.9230   28.7480 C.3   621  TRP621      0.1605
    114  C         30.2220   44.8450   27.5440 C.2   621  TRP621      0.2264
    115  O         31.0290   45.7510   27.3680 O.2   621  TRP621     -0.2867
    116  CB        31.4770   42.8850   28.5520 C.3   621  TRP621      0.0550
    117  CG        31.9770   42.4310   29.9210 C.ar  621  TRP621      0.0003
    118  CD1       31.7470   41.2250   30.5320 C.ar  621  TRP621      0.0946
    119  CD2       32.6560   43.2450   30.8920 C.ar  621  TRP621      0.0152
    120  NE1       32.2320   41.2460   31.8230 N.ar  621  TRP621     -0.2442
    121  CE2       32.7960   42.4710   32.0690 C.ar  621  TRP621      0.0810
    122  CE3       33.1560   44.5570   30.8820 C.ar  621  TRP621      0.0012
    123  CZ2       33.4200   42.9630   33.2300 C.ar  621  TRP621      0.0191
    124  CZ3       33.7770   45.0470   32.0370 C.ar  621  TRP621      0.0001
    125  CH2       33.9020   44.2460   33.1960 C.ar  621  TRP621      0.0015
    126  N         30.2150   48.5250   28.5420 N.3   624  TYR624     -0.1241
    127  CA        31.3980   49.2060   29.0250 C.3   624  TYR624      0.1605
    128  C         32.2890   49.6910   27.8850 C.2   624  TYR624      0.2264
    129  O         32.0660   49.3250   26.7200 O.2   624  TYR624     -0.2867
    130  CB        32.1720   48.3300   30.0200 C.3   624  TYR624      0.0534
    131  CG        33.0190   49.1890   30.9250 C.ar  624  TYR624     -0.0201
    132  CD1       32.4400   50.2070   31.7150 C.ar  624  TYR624     -0.0009
    133  CD2       34.4070   49.0600   30.9300 C.ar  624  TYR624     -0.0009
    134  CE1       33.2470   51.0780   32.4890 C.ar  624  TYR624      0.0417
    135  CE2       35.2140   49.9170   31.6860 C.ar  624  TYR624      0.0417
    136  CZ        34.6410   50.9190   32.4620 C.ar  624  TYR624      0.1957
    137  OH        35.4820   51.7330   33.2080 O.3   624  TYR624     -0.2866
    138  N         39.1520   49.3650   27.8220 N.3   628  TYR628     -0.1241
    139  CA        39.2420   48.4040   28.9120 C.3   628  TYR628      0.1605
    140  C         38.6270   47.0520   28.5270 C.2   628  TYR628      0.2264
    141  O         39.2800   46.0060   28.6320 O.2   628  TYR628     -0.2867
    142  CB        38.5390   48.9570   30.1610 C.3   628  TYR628      0.0534
    143  CG        38.4750   48.0030   31.3490 C.ar  628  TYR628     -0.0201
    144  CD1       37.5000   46.9970   31.4280 C.ar  628  TYR628     -0.0009
    145  CD2       39.3740   48.1290   32.4150 C.ar  628  TYR628     -0.0009
    146  CE1       37.4220   46.1440   32.5600 C.ar  628  TYR628      0.0417
    147  CE2       39.3100   47.2880   33.5350 C.ar  628  TYR628      0.0417
    148  CZ        38.3390   46.3080   33.6090 C.ar  628  TYR628      0.1957
    149  OH        38.2670   45.5230   34.7410 O.3   628  TYR628     -0.2866
    150  N         40.3730   44.8640   25.8120 N.3   631  ARG631     -0.1245
    151  CA        41.6990   44.4060   26.2190 C.3   631  ARG631      0.1563
    152  C         41.5890   42.9790   26.7550 C.2   631  ARG631      0.2260
    153  O         42.4250   42.1190   26.4810 O.2   631  ARG631     -0.2867
    154  CB        42.2810   45.3260   27.3110 C.3   631  ARG631      0.0307
    155  CG        43.6240   44.8270   27.8770 C.3   631  ARG631      0.0489
    156  CD        44.0260   45.6140   29.1160 C.3   631  ARG631      0.2205
    157  NE        44.1600   47.0180   28.7640 N.pl3 631  ARG631     -0.0865
    158  CZ        43.6160   48.0230   29.4390 C.cat 631  ARG631      0.5346
    159  NH1       42.8840   47.7990   30.5260 N.pl3 631  ARG631      0.1354
    160  NH2       43.8210   49.2590   29.0170 N.pl3 631  ARG631      0.1354
    161  N         30.9290   56.6130   34.0860 N.3   672  ASN672     -0.1225
    162  CA        31.8620   55.4840   33.8910 C.3   672  ASN672      0.1785
    163  C         31.1120   54.1570   33.5900 C.2   672  ASN672      0.2597
    164  O         31.1580   53.6390   32.4650 O.2   672  ASN672     -0.2718
    165  CB        32.7130   55.3720   35.1670 C.3   672  ASN672      0.1169
    166  CG        33.8880   54.4370   35.0040 C.2   672  ASN672      0.2627
    167  OD1       33.9190   53.6010   34.0970 O.2   672  ASN672     -0.2716
    168  ND2       34.8540   54.5590   35.8900 N.am  672  ASN672     -0.0877
    169  N         30.4420   53.6110   34.6110 N.am  673  VAL673     -0.1980
    170  CA        29.6150   52.4030   34.4730 C.3   673  VAL673      0.1595
    171  C         28.2210   53.0360   34.4870 C.2   673  VAL673      0.2287
    172  O         27.6770   53.3750   35.5460 O.2   673  VAL673     -0.2864
    173  CB        29.7730   51.4540   35.6780 C.3   673  VAL673      0.0276
    174  CG1       28.8110   50.2620   35.5320 C.3   673  VAL673      0.0022
    175  CG2       31.2340   50.9690   35.7590 C.3   673  VAL673      0.0022
    176  N         30.2240   57.4490   39.5370 N.3   702  HIS702     -0.1241
    177  CA        30.7530   56.1560   39.9640 C.3   702  HIS702      0.1621
    178  C         31.3070   56.1410   41.4050 C.2   702  HIS702      0.2264
    179  O         31.3540   55.0940   42.0470 O.2   702  HIS702     -0.2867
    180  CB        31.8400   55.6950   38.9800 C.3   702  HIS702      0.0745
    181  CG        32.0550   54.2170   38.9630 C.ar  702  HIS702      0.0817
    182  ND1       31.0160   53.3230   38.8310 N.ar  702  HIS702     -0.2268
    183  CD2       33.1850   53.4730   39.0530 C.ar  702  HIS702      0.1154
    184  CE1       31.4940   52.0900   38.8440 C.ar  702  HIS702      0.1986
    185  NE2       32.8050   52.1520   38.9750 N.ar  702  HIS702     -0.2212
@<TRIPOS>BOND
     1   150   151    1
     2   151   152    1
     3   151   154    1
     4    46    44    1
     5   153   152    2
     6    45    44    1
     7   129   128    2
     8    44    41    1
     9   154   155    1
    10   115   114    2
    11   114   113    1
    12   138   139    1
    13   155   156    1
    14   128   127    1
    15   140   141    2
    16   140   139    1
    17   126   127    1
    18   116   113    1
    19   116   117    1
    20    41    40    1
    21    41    42    1
    22   113   112    1
    23   157   156    1
    24   157   158    2
    25   139   142    1
    26   160   158    1
    27   127   130    1
    28    40    33   am
    29    66    65    1
    30    66    67    2
    31   158   159    1
    32    35    36    1
    33    35    32    1
    34    42    43    2
    35    65    68    1
    36    65    64    1
    37    68    69    1
    38    36    37    1
    39   117   118   ar
    40   117   119   ar
    41    33    34    2
    42    33    32    1
    43   130   131    1
    44   142   143    1
    45    56    55    2
    46    70    69    1
    47    70    71    1
    48    32    31    1
    49   118   120   ar
    50    31    24   am
    51    64    55   am
    52   122   119   ar
    53   122   124   ar
    54   119   121   ar
    55   131   133   ar
    56   131   132   ar
    57   133   135   ar
    58    37    39   ar
    59    37    38   ar
    60    55    54    1
    61    22    23    1
    62    73    72    1
    63   143   144   ar
    64   143   145   ar
    65   144   146   ar
    66    71    72    2
    67   135   136   ar
    68   132   134   ar
    69    72    74    1
    70   120   121   ar
    71    24    23    1
    72    24    25    2
    73   124   125   ar
    74   121   123   ar
    75    26    23    1
    76    26    27    1
    77    47    48    1
    78   145   147   ar
    79    54    53    1
    80    54    57    1
    81   136   134   ar
    82   136   137    1
    83   164   163    2
    84   146   148   ar
    85    27    28    1
    86   125   123   ar
    87   110   109    1
    88    57    58    1
    89   147   148   ar
    90   163   162    1
    91   163   169   am
    92   148   149    1
    93    48    49    1
    94    48    51    1
    95   162   161    1
    96   162   165    1
    97    49    50    2
    98   167   166    2
    99    28    29   ar
   100    28    30   ar
   101   170   171    1
   102   170   169    1
   103   170   173    1
   104   171   172    2
   105    59    58   ar
   106    59    61   ar
   107   111   109    1
   108    52    51    1
   109    58    60   ar
   110   109   106    1
   111   166   165    1
   112   166   168   am
   113   107   106    1
   114   107   108    2
   115   106   105    1
   116   104   103    1
   117    19    21   ar
   118    19    17   ar
   119   174   173    1
   120   102   103   ar
   121   102   100   ar
   122    61    63   ar
   123   173   175    1
   124    60    62   ar
   125    16    17    1
   126    16    13    1
   127    21    20   ar
   128    17    18   ar
   129   103   101   ar
   130    14    15    2
   131    14    13    1
   132     1     2    1
   133   100    98   ar
   134    12    13    1
   135    12     3   am
   136    63    62   ar
   137     5     2    1
   138     5     6    1
   139    20    18   ar
   140     2     3    1
   141   101    99   ar
   142     3     4    2
   143     8     7    1
   144     8     9    2
   145    98    99   ar
   146    98    97    1
   147    11     9    1
   148     6     7    1
   149     9    10    1
   150    97    94    1
   151   182   184   ar
   152   182   181   ar
   153   184   185   ar
   154    94    93    1
   155    94    95    1
   156   181   180    1
   157   181   183   ar
   158   185   183   ar
   159   180   177    1
   160    86    85    1
   161    92    91    1
   162    93    89   am
   163   176   177    1
   164    90    89    2
   165    89    88    1
   166    96    95    2
   167   177   178    1
   168    85    83   ar
   169    85    84   ar
   170    88    91    1
   171    88    87    1
   172    83    81   ar
   173    84    82   ar
   174   178   179    2
   175    81    80   ar
   176    78    77    2
   177    82    80   ar
   178    77    76    1
   179    80    79    1
   180    76    79    1
   181    76    75    1
