@<TRIPOS>MOLECULE
tmp/2qtbA06.pdb
 81 76 0 0 0
SMALL
GASTEIGER

@<TRIPOS>ATOM
      1  N         43.4800   45.0630   19.0720 N.3   281  ILE281     -0.1245
      2  CA        43.5510   43.7080   19.6370 C.3   281  ILE281      0.1561
      3  C         44.8160   43.8630   20.4520 C.2   281  ILE281      0.2260
      4  O         45.9190   43.7960   19.9150 O.2   281  ILE281     -0.2867
      5  CB        43.7850   42.6380   18.5740 C.3   281  ILE281      0.0252
      6  CG1       42.6520   42.6780   17.5600 C.3   281  ILE281      0.0019
      7  CG2       43.8520   41.2490   19.2310 C.3   281  ILE281      0.0019
      8  CD1       41.3070   42.4900   18.1910 C.3   281  ILE281      0.0001
      9  N         47.1950   42.5270   22.1140 N.3   283  ASN283     -0.1225
     10  CA        48.2180   41.5210   22.3660 C.3   283  ASN283      0.1785
     11  C         49.4840   41.8590   21.5590 C.2   283  ASN283      0.2597
     12  O         50.4110   41.0550   21.4820 O.2   283  ASN283     -0.2718
     13  CB        47.7100   40.1340   21.9490 C.3   283  ASN283      0.1169
     14  CG        47.3360   40.0730   20.4760 C.2   283  ASN283      0.2627
     15  OD1       47.8510   40.8440   19.6700 O.2   283  ASN283     -0.2716
     16  ND2       46.4400   39.1720   20.1030 N.am  283  ASN283     -0.0877
     17  N         49.5320   43.0440   20.9640 N.am  284  TYR284     -0.1976
     18  CA        50.6860   43.4250   20.1510 C.3   284  TYR284      0.1639
     19  C         50.9450   44.9350   20.2260 C.2   284  TYR284      0.2290
     20  O         50.0820   45.7310   19.8820 O.2   284  TYR284     -0.2864
     21  CB        50.4160   42.9940   18.7050 C.3   284  TYR284      0.0560
     22  CG        51.5690   43.1590   17.7400 C.ar  284  TYR284     -0.0198
     23  CD1       51.8460   44.3900   17.1460 C.ar  284  TYR284     -0.0009
     24  CD2       52.3830   42.0680   17.4090 C.ar  284  TYR284     -0.0009
     25  CE1       52.9030   44.5330   16.2440 C.ar  284  TYR284      0.0417
     26  CE2       53.4430   42.2060   16.5120 C.ar  284  TYR284      0.0417
     27  CZ        53.6950   43.4370   15.9340 C.ar  284  TYR284      0.1957
     28  OH        54.7450   43.5670   15.0480 O.3   284  TYR284     -0.2866
     29  N         54.7720   41.5350   22.4910 N.3   310  MET310     -0.1230
     30  CA        53.5130   40.8340   22.2610 C.3   310  MET310      0.1702
     31  C         53.2540   39.8020   23.3440 C.2   310  MET310      0.2593
     32  O         54.1190   39.5300   24.1640 O.2   310  MET310     -0.2718
     33  CB        53.5060   40.1740   20.8750 C.3   310  MET310      0.0401
     34  CG        54.5950   39.1420   20.6540 C.3   310  MET310      0.0596
     35  SD        54.4370   38.3600   19.0210 S.3   310  MET310     -0.1393
     36  CE        55.7350   39.2020   18.0770 C.3   310  MET310      0.0692
     37  N         52.0460   39.2480   23.3630 N.am  311  SER311     -0.1938
     38  CA        51.7030   38.2480   24.3640 C.3   311  SER311      0.2055
     39  C         50.9080   37.1500   23.6960 C.2   311  SER311      0.2643
     40  O         50.0320   37.4190   22.8800 O.2   311  SER311     -0.2714
     41  CB        50.8700   38.8740   25.4910 C.3   311  SER311      0.2130
     42  OG        50.5180   37.9100   26.4710 O.3   311  SER311     -0.2179
     43  N         51.2170   35.9100   24.0480 N.am  312  THR312     -0.1950
     44  CA        50.5120   34.7700   23.4810 C.3   312  THR312      0.1897
     45  C         49.4500   34.2100   24.4360 C.2   312  THR312      0.2313
     46  O         48.5890   33.4460   24.0200 O.2   312  THR312     -0.2863
     47  CB        51.5040   33.6430   23.1190 C.3   312  THR312      0.1794
     48  OG1       52.3510   33.3910   24.2440 O.3   312  THR312     -0.2208
     49  CG2       52.3700   34.0430   21.9230 C.3   312  THR312      0.0378
     50  N         47.7200   36.3910   26.8290 N.3   314  GLY314     -0.1225
     51  CA        46.7380   37.4040   27.1670 C.3   314  GLY314      0.1811
     52  C         46.9990   38.7110   26.4460 C.2   314  GLY314      0.2280
     53  O         47.3020   38.7220   25.2540 O.2   314  GLY314     -0.2866
     54  N         39.8300   36.5100   27.7260 N.3   558  ARG558     -0.1245
     55  CA        38.6880   36.2730   26.8300 C.3   558  ARG558      0.1563
     56  C         37.5710   35.5350   27.5390 C.2   558  ARG558      0.2260
     57  O         36.6320   35.0480   26.9030 O.2   558  ARG558     -0.2867
     58  CB        39.1140   35.4760   25.5870 C.3   558  ARG558      0.0307
     59  CG        40.1390   36.1940   24.7020 C.3   558  ARG558      0.0489
     60  CD        40.6350   35.2780   23.5960 C.3   558  ARG558      0.2205
     61  NE        39.5380   34.7780   22.7580 N.pl3 558  ARG558     -0.0865
     62  CZ        38.9720   35.4610   21.7680 C.cat 558  ARG558      0.5346
     63  NH1       39.3890   36.6930   21.4650 N.pl3 558  ARG558      0.1354
     64  NH2       37.9860   34.9080   21.0780 N.pl3 558  ARG558      0.1354
     65  N         32.7270   36.4370   14.6610 N.3   639  GLU639     -0.1231
     66  CA        34.0590   35.9810   14.2540 C.3   639  GLU639      0.1699
     67  C         35.0730   36.0400   15.3940 C.2   639  GLU639      0.2592
     68  O         36.1570   35.4620   15.3010 O.2   639  GLU639     -0.2718
     69  CB        34.6000   36.8280   13.1040 C.3   639  GLU639      0.0402
     70  CG        33.6710   36.9450   11.8970 C.3   639  GLU639      0.1161
     71  CD        32.4920   37.8610   12.1680 C.2   639  GLU639      0.3649
     72  OE1       32.7130   38.9130   12.8190 O.co2 639  GLU639     -0.2457
     73  OE2       31.3590   37.5470   11.7210 O.co2 639  GLU639     -0.2457
     74  N         34.7440   36.7540   16.4650 N.am  640  ASP640     -0.1974
     75  CA        35.6960   36.8380   17.5590 C.3   640  ASP640      0.1709
     76  C         35.2340   36.2270   18.8660 C.2   640  ASP640      0.2293
     77  O         35.4700   35.0530   19.0970 O.2   640  ASP640     -0.2864
     78  CB        36.1280   38.2780   17.8180 C.3   640  ASP640      0.1436
     79  CG        37.3400   38.3610   18.7440 C.2   640  ASP640      0.3671
     80  OD1       37.6300   37.3700   19.4550 O.co2 640  ASP640     -0.2456
     81  OD2       38.0020   39.4220   18.7700 O.co2 640  ASP640     -0.2456
@<TRIPOS>BOND
     1    73    71   ar
     2    70    71    1
     3    70    69    1
     4    71    72   ar
     5    69    66    1
     6    66    65    1
     7    66    67    1
     8    28    27    1
     9    68    67    2
    10    67    74   am
    11    27    25   ar
    12    27    26   ar
    13    25    23   ar
    14    74    75    1
    15    26    24   ar
    16    23    22   ar
    17    24    22   ar
    18    75    78    1
    19    75    76    1
    20     6     8    1
    21     6     5    1
    22    22    21    1
    23    78    79    1
    24    36    35    1
    25     5     7    1
    26     5     2    1
    27    21    18    1
    28    79    81   ar
    29    79    80   ar
    30    76    77    2
    31    35    34    1
    32     1     2    1
    33     2     3    1
    34    15    14    2
    35    20    19    2
    36     4     3    2
    37    16    14   am
    38    18    19    1
    39    18    17    1
    40    14    13    1
    41    34    33    1
    42    33    30    1
    43    17    11   am
    44    64    62    1
    45    63    62    1
    46    12    11    2
    47    11    10    1
    48    62    61    2
    49    49    47    1
    50    13    10    1
    51     9    10    1
    52    30    29    1
    53    30    31    1
    54    61    60    1
    55    40    39    2
    56    47    44    1
    57    47    48    1
    58    31    37   am
    59    31    32    2
    60    37    38    1
    61    44    43    1
    62    44    45    1
    63    60    59    1
    64    39    43   am
    65    39    38    1
    66    46    45    2
    67    38    41    1
    68    59    58    1
    69    53    52    2
    70    41    42    1
    71    58    55    1
    72    52    51    1
    73    50    51    1
    74    55    56    1
    75    55    54    1
    76    57    56    2
