@<TRIPOS>MOLECULE
tmp/2qtbA08.pdb
 196 192 0 0 0
SMALL
GASTEIGER

@<TRIPOS>ATOM
      1  N         37.2140   61.3130   36.2540 N.3    87  ARG87      -0.1231
      2  CA        38.1030   60.8600   37.3120 C.3    87  ARG87       0.1694
      3  C         39.3230   61.7630   37.5110 C.2    87  ARG87       0.2592
      4  O         39.7070   62.0480   38.6440 O.2    87  ARG87      -0.2718
      5  CB        38.5360   59.4100   37.0580 C.3    87  ARG87       0.0321
      6  CG        39.8030   58.9940   37.7990 C.3    87  ARG87       0.0489
      7  CD        39.7730   57.6230   38.4610 C.3    87  ARG87       0.2205
      8  NE        38.9820   56.6080   37.7580 N.pl3  87  ARG87      -0.0865
      9  CZ        38.3990   55.5890   38.3910 C.cat  87  ARG87       0.5346
     10  NH1       38.5410   55.4780   39.7060 N.pl3  87  ARG87       0.1354
     11  NH2       37.6490   54.7200   37.7380 N.pl3  87  ARG87       0.1354
     12  N         39.9320   62.2200   36.4260 N.am   88  HIS88      -0.1976
     13  CA        41.1060   63.0820   36.5580 C.3    88  HIS88       0.1656
     14  C         40.8900   64.5050   36.0100 C.2    88  HIS88       0.2291
     15  O         41.5100   65.4470   36.4760 O.2    88  HIS88      -0.2864
     16  CB        42.3120   62.4500   35.8290 C.3    88  HIS88       0.0771
     17  CG        42.5100   60.9940   36.1210 C.ar   88  HIS88       0.0820
     18  ND1       42.9420   60.5280   37.3450 N.ar   88  HIS88      -0.2267
     19  CD2       42.3030   59.8990   35.3480 C.ar   88  HIS88       0.1154
     20  CE1       42.9900   59.2060   37.3150 C.ar   88  HIS88       0.1986
     21  NE2       42.6060   58.8020   36.1170 N.ar   88  HIS88      -0.2212
     22  N         40.3910   57.8770   31.2510 N.3   167  GLU167     -0.1231
     23  CA        40.0740   56.7950   32.1720 C.3   167  GLU167      0.1699
     24  C         40.9510   55.5460   32.0380 C.2   167  GLU167      0.2592
     25  O         41.5830   55.1270   33.0100 O.2   167  GLU167     -0.2718
     26  CB        38.5890   56.4170   31.9910 C.3   167  GLU167      0.0402
     27  CG        38.0580   55.2790   32.8400 C.3   167  GLU167      0.1161
     28  CD        38.2710   55.4820   34.3400 C.2   167  GLU167      0.3649
     29  OE1       38.3200   56.6370   34.8130 O.co2 167  GLU167     -0.2457
     30  OE2       38.3800   54.4690   35.0470 O.co2 167  GLU167     -0.2457
     31  N         41.0370   55.0150   30.8200 N.am  168  GLU168     -0.1966
     32  CA        41.7290   53.7540   30.5480 C.3   168  GLU168      0.1733
     33  C         43.1900   53.6800   30.1060 C.2   168  GLU168      0.2616
     34  O         43.8100   52.6430   30.2600 O.2   168  GLU168     -0.2715
     35  CB        40.9030   52.9900   29.5160 C.3   168  GLU168      0.0429
     36  CG        39.4120   53.0290   29.8010 C.3   168  GLU168      0.1163
     37  CD        39.0150   52.1640   31.0020 C.2   168  GLU168      0.3649
     38  OE1       39.9020   51.6520   31.7210 O.co2 168  GLU168     -0.2457
     39  OE2       37.8080   52.0140   31.2220 O.co2 168  GLU168     -0.2457
     40  N         43.7440   54.7580   29.5620 N.am  169  VAL169     -0.1977
     41  CA        45.1110   54.7020   29.0630 C.3   169  VAL169      0.1596
     42  C         46.1180   55.5320   29.8430 C.2   169  VAL169      0.2287
     43  O         47.0530   54.9900   30.4240 O.2   169  VAL169     -0.2864
     44  CB        45.1320   55.1150   27.5710 C.3   169  VAL169      0.0276
     45  CG1       46.5580   55.0420   27.0000 C.3   169  VAL169      0.0022
     46  CG2       44.2040   54.2180   26.8030 C.3   169  VAL169      0.0022
     47  N         45.3120   57.7490   32.4970 N.3   171  SER171     -0.1217
     48  CA        44.9210   58.0390   33.8800 C.3   171  SER171      0.1889
     49  C         45.2360   59.4950   34.1660 C.2   171  SER171      0.2288
     50  O         45.7540   59.8350   35.2280 O.2   171  SER171     -0.2866
     51  CB        45.7010   57.1580   34.8580 C.3   171  SER171      0.2089
     52  OG        45.3340   55.8040   34.6920 O.3   171  SER171     -0.2183
     53  N         50.2230   45.1030   32.4670 N.3   318  ARG318     -0.1231
     54  CA        49.2000   44.8520   33.4840 C.3   318  ARG318      0.1694
     55  C         47.8770   45.4700   33.0290 C.2   318  ARG318      0.2592
     56  O         46.8510   44.7890   32.9770 O.2   318  ARG318     -0.2718
     57  CB        49.6410   45.3820   34.8550 C.3   318  ARG318      0.0321
     58  CG        50.7550   44.5090   35.4790 C.3   318  ARG318      0.0489
     59  CD        51.0440   44.8840   36.9130 C.3   318  ARG318      0.2205
     60  NE        51.9560   43.9340   37.5470 N.pl3 318  ARG318     -0.0865
     61  CZ        53.2500   44.1570   37.7840 C.cat 318  ARG318      0.5346
     62  NH1       53.8130   45.3080   37.4380 N.pl3 318  ARG318      0.1354
     63  NH2       53.9710   43.2360   38.3980 N.pl3 318  ARG318      0.1354
     64  N         47.9170   46.7470   32.6790 N.am  319  PHE319     -0.1962
     65  CA        46.7500   47.4470   32.1660 C.3   319  PHE319      0.1771
     66  C         47.1450   48.0830   30.8290 C.2   319  PHE319      0.2619
     67  O         46.2770   48.4780   30.0510 O.2   319  PHE319     -0.2715
     68  CB        46.2700   48.5040   33.1540 C.3   319  PHE319      0.0574
     69  CG        45.6230   47.9360   34.3660 C.ar  319  PHE319     -0.0200
     70  CD1       44.2880   47.5560   34.3350 C.ar  319  PHE319     -0.0042
     71  CD2       46.3470   47.7580   35.5350 C.ar  319  PHE319     -0.0042
     72  CE1       43.6700   47.0110   35.4490 C.ar  319  PHE319     -0.0003
     73  CE2       45.7280   47.2070   36.6710 C.ar  319  PHE319     -0.0003
     74  CZ        44.3850   46.8300   36.6180 C.ar  319  PHE319     -0.0000
     75  N         48.4540   48.1830   30.5820 N.am  320  ARG320     -0.1977
     76  CA        49.0080   48.6960   29.3180 C.3   320  ARG320      0.1597
     77  C         50.5100   48.4700   29.3300 C.2   320  ARG320      0.2287
     78  O         51.1060   48.2740   30.3930 O.2   320  ARG320     -0.2864
     79  CB        48.7420   50.1990   29.1200 C.3   320  ARG320      0.0334
     80  CG        49.4510   51.0880   30.1270 C.3   320  ARG320      0.0492
     81  CD        49.3240   52.5730   29.8020 C.3   320  ARG320      0.2205
     82  NE        49.7460   53.3690   30.9510 N.pl3 320  ARG320     -0.0865
     83  CZ        50.1690   54.6260   30.8940 C.cat 320  ARG320      0.5346
     84  NH1       50.2410   55.2630   29.7260 N.pl3 320  ARG320      0.1354
     85  NH2       50.5200   55.2470   32.0100 N.pl3 320  ARG320      0.1354
     86  N         36.3520   42.3000   44.7740 N.3   509  TYR509     -0.1241
     87  CA        36.5340   43.1860   43.6350 C.3   509  TYR509      0.1605
     88  C         36.8030   42.1750   42.5230 C.2   509  TYR509      0.2264
     89  O         35.9550   41.9740   41.6590 O.2   509  TYR509     -0.2867
     90  CB        37.7000   44.1440   43.8020 C.3   509  TYR509      0.0534
     91  CG        37.7670   45.0670   42.6090 C.ar  509  TYR509     -0.0201
     92  CD1       38.7260   44.8830   41.6160 C.ar  509  TYR509     -0.0009
     93  CD2       36.7900   46.0600   42.4160 C.ar  509  TYR509     -0.0009
     94  CE1       38.7180   45.6450   40.4640 C.ar  509  TYR509      0.0417
     95  CE2       36.7700   46.8290   41.2560 C.ar  509  TYR509      0.0417
     96  CZ        37.7420   46.6060   40.2820 C.ar  509  TYR509      0.1957
     97  OH        37.6950   47.3070   39.1030 O.3   509  TYR509     -0.2866
     98  N         31.5250   48.4180   41.5650 N.3   592  SER592     -0.1202
     99  CA        32.1580   48.4540   40.2310 C.3   592  SER592      0.2020
    100  C         32.3890   47.0150   39.7070 C.2   592  SER592      0.2618
    101  O         31.4590   46.2120   39.6370 O.2   592  SER592     -0.2717
    102  CB        33.4930   49.1800   40.2910 C.3   592  SER592      0.2103
    103  OG        33.8010   49.7910   39.0550 O.3   592  SER592     -0.2182
    104  N         33.6280   46.6740   39.3240 N.am  593  TYR593     -0.1975
    105  CA        33.8700   45.2980   38.9090 C.3   593  TYR593      0.1639
    106  C         33.3950   44.3850   40.0410 C.2   593  TYR593      0.2290
    107  O         32.8930   43.2960   39.8050 O.2   593  TYR593     -0.2864
    108  CB        35.3530   45.0490   38.6210 C.3   593  TYR593      0.0560
    109  CG        35.5900   43.8220   37.7620 C.ar  593  TYR593     -0.0198
    110  CD1       35.4110   42.5260   38.2710 C.ar  593  TYR593     -0.0009
    111  CD2       35.9440   43.9580   36.4140 C.ar  593  TYR593     -0.0009
    112  CE1       35.5740   41.3920   37.4510 C.ar  593  TYR593      0.0417
    113  CE2       36.1100   42.8450   35.5920 C.ar  593  TYR593      0.0417
    114  CZ        35.9220   41.5620   36.1170 C.ar  593  TYR593      0.1957
    115  OH        36.0770   40.4770   35.2980 O.3   593  TYR593     -0.2866
    116  N         28.8910   46.2100   36.6910 N.3   618  VAL618     -0.1245
    117  CA        28.8600   46.0440   35.2590 C.3   618  VAL618      0.1561
    118  C         27.8630   44.8880   35.1320 C.2   618  VAL618      0.2260
    119  O         27.8750   43.9880   35.9710 O.2   618  VAL618     -0.2867
    120  CB        30.2300   45.6140   34.7260 C.3   618  VAL618      0.0252
    121  CG1       30.0890   44.8680   33.4080 C.3   618  VAL618      0.0019
    122  CG2       31.0730   46.8350   34.5220 C.3   618  VAL618      0.0019
    123  N         29.1680   42.9980   29.3080 N.3   621  TRP621     -0.1241
    124  CA        30.3590   43.6630   28.7950 C.3   621  TRP621      0.1605
    125  C         30.2000   44.5870   27.6100 C.2   621  TRP621      0.2264
    126  O         31.0100   45.4930   27.4260 O.2   621  TRP621     -0.2867
    127  CB        31.4800   42.6350   28.5830 C.3   621  TRP621      0.0550
    128  CG        31.9690   42.1440   29.9320 C.ar  621  TRP621      0.0003
    129  CD1       31.7470   40.9120   30.5000 C.ar  621  TRP621      0.0946
    130  CD2       32.6270   42.9330   30.9400 C.ar  621  TRP621      0.0152
    131  NE1       32.2170   40.8940   31.7970 N.ar  621  TRP621     -0.2442
    132  CE2       32.7590   42.1200   32.0930 C.ar  621  TRP621      0.0810
    133  CE3       33.1100   44.2500   30.9830 C.ar  621  TRP621      0.0012
    134  CZ2       33.3570   42.5860   33.2840 C.ar  621  TRP621      0.0191
    135  CZ3       33.7050   44.7140   32.1680 C.ar  621  TRP621      0.0001
    136  CH2       33.8210   43.8780   33.3000 C.ar  621  TRP621      0.0015
    137  N         30.2240   48.2880   28.6510 N.3   624  TYR624     -0.1241
    138  CA        31.4180   48.9780   29.1200 C.3   624  TYR624      0.1605
    139  C         32.3400   49.4360   27.9750 C.2   624  TYR624      0.2264
    140  O         32.2170   48.9570   26.8330 O.2   624  TYR624     -0.2867
    141  CB        32.1780   48.1050   30.1250 C.3   624  TYR624      0.0534
    142  CG        33.0350   48.9500   31.0250 C.ar  624  TYR624     -0.0201
    143  CD1       32.4740   50.0000   31.7650 C.ar  624  TYR624     -0.0009
    144  CD2       34.4250   48.7750   31.0680 C.ar  624  TYR624     -0.0009
    145  CE1       33.2690   50.8600   32.5130 C.ar  624  TYR624      0.0417
    146  CE2       35.2330   49.6390   31.8210 C.ar  624  TYR624      0.0417
    147  CZ        34.6420   50.6830   32.5360 C.ar  624  TYR624      0.1957
    148  OH        35.4310   51.5580   33.2550 O.3   624  TYR624     -0.2866
    149  N         39.0870   49.0240   27.8630 N.3   628  TYR628     -0.1241
    150  CA        39.2200   48.0800   28.9720 C.3   628  TYR628      0.1605
    151  C         38.5820   46.7210   28.6400 C.2   628  TYR628      0.2264
    152  O         39.2090   45.6800   28.7930 O.2   628  TYR628     -0.2867
    153  CB        38.5800   48.6860   30.2260 C.3   628  TYR628      0.0534
    154  CG        38.5320   47.7920   31.4400 C.ar  628  TYR628     -0.0201
    155  CD1       37.5550   46.7840   31.5610 C.ar  628  TYR628     -0.0009
    156  CD2       39.4470   47.9590   32.4900 C.ar  628  TYR628     -0.0009
    157  CE1       37.4920   45.9660   32.7090 C.ar  628  TYR628      0.0417
    158  CE2       39.3960   47.1410   33.6360 C.ar  628  TYR628      0.0417
    159  CZ        38.4220   46.1540   33.7440 C.ar  628  TYR628      0.1957
    160  OH        38.3530   45.3700   34.8830 O.3   628  TYR628     -0.2866
    161  N         40.3590   44.5540   25.8770 N.3   631  ARG631     -0.1245
    162  CA        41.6640   44.1000   26.3320 C.3   631  ARG631      0.1563
    163  C         41.5390   42.6870   26.8790 C.2   631  ARG631      0.2260
    164  O         42.4100   41.8570   26.6750 O.2   631  ARG631     -0.2867
    165  CB        42.1960   44.9970   27.4540 C.3   631  ARG631      0.0307
    166  CG        43.4810   44.4690   28.1190 C.3   631  ARG631      0.0489
    167  CD        43.9200   45.3940   29.2470 C.3   631  ARG631      0.2205
    168  NE        43.9600   46.7790   28.7740 N.pl3 631  ARG631     -0.0865
    169  CZ        43.4400   47.8130   29.4240 C.cat 631  ARG631      0.5346
    170  NH1       42.8280   47.6400   30.5940 N.pl3 631  ARG631      0.1354
    171  NH2       43.5340   49.0220   28.8930 N.pl3 631  ARG631      0.1354
    172  N         30.8930   56.3950   34.0970 N.3   672  ASN672     -0.1225
    173  CA        31.8180   55.2720   33.9210 C.3   672  ASN672      0.1785
    174  C         31.0460   53.9470   33.6550 C.2   672  ASN672      0.2597
    175  O         31.0790   53.4080   32.5450 O.2   672  ASN672     -0.2718
    176  CB        32.6980   55.1690   35.1780 C.3   672  ASN672      0.1169
    177  CG        33.8940   54.2810   34.9770 C.2   672  ASN672      0.2627
    178  OD1       33.9050   53.4190   34.1040 O.2   672  ASN672     -0.2716
    179  ND2       34.9020   54.4770   35.7850 N.am  672  ASN672     -0.0877
    180  N         30.3860   53.4130   34.6830 N.am  673  VAL673     -0.1980
    181  CA        29.5640   52.1970   34.5380 C.3   673  VAL673      0.1595
    182  C         28.1730   52.8020   34.4730 C.2   673  VAL673      0.2287
    183  O         27.5870   53.1520   35.4980 O.2   673  VAL673     -0.2864
    184  CB        29.6750   51.2700   35.7650 C.3   673  VAL673      0.0276
    185  CG1       28.7750   50.0550   35.5800 C.3   673  VAL673      0.0022
    186  CG2       31.1120   50.8420   35.9480 C.3   673  VAL673      0.0022
    187  N         30.1650   57.2330   39.6150 N.3   702  HIS702     -0.1241
    188  CA        30.6990   55.9440   40.0230 C.3   702  HIS702      0.1621
    189  C         31.2780   55.9310   41.4430 C.2   702  HIS702      0.2264
    190  O         31.3580   54.8840   42.0770 O.2   702  HIS702     -0.2867
    191  CB        31.7620   55.4940   39.0160 C.3   702  HIS702      0.0745
    192  CG        32.0370   54.0220   39.0430 C.ar  702  HIS702      0.0817
    193  ND1       31.0530   53.0790   38.8250 N.ar  702  HIS702     -0.2268
    194  CD2       33.1820   53.3270   39.2460 C.ar  702  HIS702      0.1154
    195  CE1       31.5820   51.8700   38.8870 C.ar  702  HIS702      0.1986
    196  NE2       32.8730   51.9910   39.1410 N.ar  702  HIS702     -0.2212
@<TRIPOS>BOND
     1   161   162    1
     2   162   163    1
     3   162   165    1
     4   164   163    2
     5    46    44    1
     6   140   139    2
     7    45    44    1
     8   126   125    2
     9   165   166    1
    10    44    41    1
    11   125   124    1
    12   149   150    1
    13   139   138    1
    14   166   167    1
    15   127   124    1
    16   127   128    1
    17   151   152    2
    18   151   150    1
    19   137   138    1
    20   168   167    1
    21   168   169    2
    22   124   123    1
    23   171   169    1
    24   150   153    1
    25    41    40    1
    26    41    42    1
    27    79    76    1
    28    79    80    1
    29   138   141    1
    30    76    77    1
    31    76    75    1
    32    77    78    2
    33   169   170    1
    34    35    36    1
    35    35    32    1
    36    40    33   am
    37    84    83    1
    38    36    37    1
    39    81    80    1
    40    81    82    1
    41    42    43    2
    42   128   129   ar
    43   128   130   ar
    44    67    66    2
    45    33    34    2
    46    33    32    1
    47   141   142    1
    48   153   154    1
    49   129   131   ar
    50    32    31    1
    51    75    66   am
    52    31    24   am
    53    66    65    1
    54    83    82    2
    55    83    85    1
    56   130   133   ar
    57   130   132   ar
    58   133   135   ar
    59    37    39   ar
    60    37    38   ar
    61   142   144   ar
    62   142   143   ar
    63   144   146   ar
    64    22    23    1
    65   154   155   ar
    66   154   156   ar
    67   155   157   ar
    68   143   145   ar
    69   131   132   ar
    70   146   147   ar
    71    26    23    1
    72    26    27    1
    73    24    23    1
    74    24    25    2
    75   132   134   ar
    76    65    64    1
    77    65    68    1
    78   135   136   ar
    79    53    54    1
    80   156   158   ar
    81    47    48    1
    82   145   147   ar
    83   147   148    1
    84   175   174    2
    85    64    55   am
    86   157   159   ar
    87    27    28    1
    88    56    55    2
    89    55    54    1
    90    68    69    1
    91   134   136   ar
    92   121   120    1
    93    54    57    1
    94   158   159   ar
    95   174   173    1
    96   174   180   am
    97   159   160    1
    98    48    49    1
    99    48    51    1
   100   173   172    1
   101   173   176    1
   102   178   177    2
   103    49    50    2
   104    70    69   ar
   105    70    72   ar
   106    28    29   ar
   107    28    30   ar
   108    69    71   ar
   109   182   181    1
   110   182   183    2
   111   122   120    1
   112   181   180    1
   113   181   184    1
   114    52    51    1
   115   120   117    1
   116    57    58    1
   117   177   176    1
   118   177   179   am
   119   118   117    1
   120   118   119    2
   121   117   116    1
   122   115   114    1
   123    19    21   ar
   124    19    17   ar
   125    72    74   ar
   126    58    59    1
   127    71    73   ar
   128   185   184    1
   129   113   114   ar
   130   113   111   ar
   131   184   186    1
   132    16    17    1
   133    16    13    1
   134    14    15    2
   135    14    13    1
   136    21    20   ar
   137   114   112   ar
   138    17    18   ar
   139     1     2    1
   140   111   109   ar
   141    12    13    1
   142    12     3   am
   143    74    73   ar
   144    59    60    1
   145     5     2    1
   146     5     6    1
   147     2     3    1
   148    20    18   ar
   149    62    61    1
   150   112   110   ar
   151     3     4    2
   152    60    61    2
   153    11     9    1
   154     8     9    2
   155     8     7    1
   156   109   110   ar
   157   109   108    1
   158    61    63    1
   159     6     7    1
   160     9    10    1
   161   108   105    1
   162   193   195   ar
   163   193   192   ar
   164   195   196   ar
   165   105   104    1
   166   105   106    1
   167   191   192    1
   168   191   188    1
   169   192   194   ar
   170   103   102    1
   171    97    96    1
   172   196   194   ar
   173   104   100   am
   174   187   188    1
   175   101   100    2
   176   100    99    1
   177   107   106    2
   178   188   189    1
   179    99   102    1
   180    99    98    1
   181    96    94   ar
   182    96    95   ar
   183    94    92   ar
   184    95    93   ar
   185   189   190    2
   186    92    91   ar
   187    89    88    2
   188    93    91   ar
   189    88    87    1
   190    91    90    1
   191    87    90    1
   192    87    86    1
