@<TRIPOS>MOLECULE
tmp/2qtcB01.pdb
 107 100 0 0 0
SMALL
GASTEIGER

@<TRIPOS>ATOM
      1  N         28.0000  -63.5720    8.0650 N.3   452  ALA452     -0.1231
      2  CA        26.7760  -62.8490    7.7670 C.3   452  ALA452      0.1694
      3  C         25.9140  -63.7960    6.9300 C.2   452  ALA452      0.2592
      4  O         25.9200  -63.7270    5.7100 O.2   452  ALA452     -0.2718
      5  CB        27.0930  -61.5410    7.0000 C.3   452  ALA452      0.0304
      6  N         25.1890  -64.6750    7.6260 N.am  453  ASP453     -0.1960
      7  CA        24.2950  -65.6980    7.0660 C.3   453  ASP453      0.1840
      8  C         25.1190  -66.8040    6.4200 C.2   453  ASP453      0.2621
      9  O         25.2030  -67.9240    6.9610 O.2   453  ASP453     -0.2715
     10  CB        23.3160  -65.1130    6.0340 C.3   453  ASP453      0.1450
     11  CG        22.2330  -66.1150    5.6110 C.2   453  ASP453      0.3671
     12  OD1       22.1950  -67.2600    6.1330 O.co2 453  ASP453     -0.2456
     13  OD2       21.4110  -65.7620    4.7400 O.co2 453  ASP453     -0.2456
     14  N         25.7510  -66.4580    5.2950 N.am  454  GLU454     -0.1977
     15  CA        26.6000  -67.3540    4.5240 C.3   454  GLU454      0.1602
     16  C         27.7100  -68.0230    5.3060 C.2   454  GLU454      0.2287
     17  O         28.6670  -67.3730    5.7530 O.2   454  GLU454     -0.2864
     18  CB        27.2180  -66.6070    3.3410 C.3   454  GLU454      0.0415
     19  CG        26.7310  -67.1470    2.0070 C.3   454  GLU454      0.1163
     20  CD        25.2420  -66.9890    1.8700 C.2   454  GLU454      0.3649
     21  OE1       24.5460  -67.1850    2.8950 O.co2 454  GLU454     -0.2457
     22  OE2       24.7620  -66.6720    0.7590 O.co2 454  GLU454     -0.2457
     23  N         28.4950  -71.4480    2.1270 N.3   457  THR457     -0.1218
     24  CA        29.2690  -71.0010    0.9740 C.3   457  THR457      0.1862
     25  C         30.7680  -71.0260    1.2840 C.2   457  THR457      0.2287
     26  O         31.5810  -71.2010    0.3830 O.2   457  THR457     -0.2866
     27  CB        28.8860  -69.5720    0.5630 C.3   457  THR457      0.1770
     28  OG1       27.5550  -69.5860    0.0320 O.3   457  THR457     -0.2211
     29  CG2       29.8430  -69.0300   -0.4980 C.3   457  THR457      0.0375
     30  N         21.8750  -61.6250    7.3760 N.3   484  ILE484     -0.1245
     31  CA        22.1740  -60.8240    6.1980 C.3   484  ILE484      0.1561
     32  C         22.3000  -59.3950    6.7210 C.2   484  ILE484      0.2260
     33  O         21.3760  -58.5860    6.6450 O.2   484  ILE484     -0.2867
     34  CB        21.0340  -60.9590    5.1700 C.3   484  ILE484      0.0252
     35  CG1       20.7350  -62.4540    4.9870 C.3   484  ILE484      0.0019
     36  CG2       21.4320  -60.3010    3.8430 C.3   484  ILE484      0.0019
     37  CD1       19.6620  -62.7690    3.9820 C.3   484  ILE484      0.0001
     38  N         25.8090  -57.1120    6.8890 N.3   486  GLU486     -0.1245
     39  CA        27.2570  -56.8940    6.9200 C.3   486  GLU486      0.1567
     40  C         27.6870  -55.8130    7.9160 C.2   486  GLU486      0.2260
     41  O         28.7260  -55.9340    8.5670 O.2   486  GLU486     -0.2867
     42  CB        27.7740  -56.5160    5.5250 C.3   486  GLU486      0.0388
     43  CG        27.8470  -57.6390    4.5300 C.3   486  GLU486      0.1160
     44  CD        26.4870  -58.0280    3.9460 C.2   486  GLU486      0.3649
     45  OE1       25.5390  -57.2240    4.0280 O.co2 486  GLU486     -0.2457
     46  OE2       26.3850  -59.1430    3.3920 O.co2 486  GLU486     -0.2457
     47  N         31.2140  -62.1360    1.6910 N.3   514  TYR514     -0.1241
     48  CA        31.4910  -61.9840    0.2540 C.3   514  TYR514      0.1605
     49  C         32.3110  -60.7180    0.1340 C.2   514  TYR514      0.2264
     50  O         31.8400  -59.6570    0.5240 O.2   514  TYR514     -0.2867
     51  CB        30.1900  -61.8360   -0.5170 C.3   514  TYR514      0.0534
     52  CG        29.3610  -63.0920   -0.5760 C.ar  514  TYR514     -0.0201
     53  CD1       29.9030  -64.3310   -0.2810 C.ar  514  TYR514     -0.0009
     54  CD2       28.0330  -63.0410   -0.9690 C.ar  514  TYR514     -0.0009
     55  CE1       29.1280  -65.4990   -0.3830 C.ar  514  TYR514      0.0417
     56  CE2       27.2650  -64.1960   -1.0780 C.ar  514  TYR514      0.0417
     57  CZ        27.8150  -65.4080   -0.7880 C.ar  514  TYR514      0.1957
     58  OH        27.0280  -66.5400   -0.9330 O.3   514  TYR514     -0.2866
     59  N         30.9460  -57.1240   -0.5340 N.3   517  PHE517     -0.1241
     60  CA        30.2260  -56.4090    0.5020 C.3   517  PHE517      0.1605
     61  C         31.0240  -56.0930    1.7350 C.2   517  PHE517      0.2264
     62  O         30.4690  -56.0200    2.8250 O.2   517  PHE517     -0.2867
     63  CB        28.9580  -57.1880    0.8730 C.3   517  PHE517      0.0534
     64  CG        28.1820  -57.6510   -0.3240 C.ar  517  PHE517     -0.0203
     65  CD1       27.7940  -56.7560   -1.3020 C.ar  517  PHE517     -0.0042
     66  CD2       27.8730  -58.9930   -0.4870 C.ar  517  PHE517     -0.0042
     67  CE1       27.1100  -57.1840   -2.4330 C.ar  517  PHE517     -0.0003
     68  CE2       27.1890  -59.4310   -1.6060 C.ar  517  PHE517     -0.0003
     69  CZ        26.8070  -58.5320   -2.5870 C.ar  517  PHE517     -0.0000
     70  N         30.6130  -51.8000    0.9970 N.3   521  ARG521     -0.1245
     71  CA        29.3470  -51.6890    1.7170 C.3   521  ARG521      0.1563
     72  C         29.4280  -51.1420    3.1370 C.2   521  ARG521      0.2260
     73  O         28.4790  -50.5250    3.6190 O.2   521  ARG521     -0.2867
     74  CB        28.6810  -53.0830    1.7470 C.3   521  ARG521      0.0307
     75  CG        27.3390  -53.1380    2.4860 C.3   521  ARG521      0.0489
     76  CD        26.3570  -52.1670    1.8930 C.3   521  ARG521      0.2205
     77  NE        25.0000  -52.4250    2.3820 N.pl3 521  ARG521     -0.0865
     78  CZ        24.1280  -53.2440    1.7890 C.cat 521  ARG521      0.5346
     79  NH1       24.4490  -53.8880    0.6690 N.pl3 521  ARG521      0.1354
     80  NH2       22.9370  -53.4450    2.3290 N.pl3 521  ARG521      0.1354
     81  N         34.5500  -65.6200   -8.9020 N.3   548  LEU548     -0.1245
     82  CA        33.1680  -65.8800   -8.4490 C.3   548  LEU548      0.1561
     83  C         32.4500  -65.6250   -9.7780 C.2   548  LEU548      0.2260
     84  O         31.7030  -64.6470   -9.9400 O.2   548  LEU548     -0.2867
     85  CB        32.7690  -64.8680   -7.3840 C.3   548  LEU548      0.0270
     86  CG        31.3520  -65.0080   -6.8640 C.3   548  LEU548      0.0019
     87  CD1       31.1520  -66.4170   -6.2700 C.3   548  LEU548      0.0001
     88  CD2       31.0920  -63.9330   -5.8540 C.3   548  LEU548      0.0001
     89  N         28.2480  -65.3320  -10.5760 N.3   551  GLU551     -0.1245
     90  CA        27.4990  -64.3290   -9.8350 C.3   551  GLU551      0.1567
     91  C         27.2670  -62.9740  -10.4630 C.2   551  GLU551      0.2260
     92  O         26.2660  -62.3120  -10.1620 O.2   551  GLU551     -0.2867
     93  CB        28.1030  -64.1890   -8.4420 C.3   551  GLU551      0.0388
     94  CG        27.8720  -65.4200   -7.5830 C.3   551  GLU551      0.1160
     95  CD        26.3890  -65.8240   -7.4970 C.2   551  GLU551      0.3649
     96  OE1       25.5490  -64.9510   -7.2040 O.co2 551  GLU551     -0.2457
     97  OE2       26.0710  -67.0180   -7.7000 O.co2 551  GLU551     -0.2457
     98  N         28.5350  -58.8850   -7.5660 N.3   555  HIS555     -0.1241
     99  CA        29.2510  -59.8170   -6.7060 C.3   555  HIS555      0.1621
    100  C         30.7360  -59.9510   -7.0400 C.2   555  HIS555      0.2264
    101  O         31.5170  -60.1990   -6.1550 O.2   555  HIS555     -0.2867
    102  CB        28.6820  -61.2420   -6.7900 C.3   555  HIS555      0.0745
    103  CG        27.3310  -61.4110   -6.1590 C.ar  555  HIS555      0.0817
    104  ND1       26.1730  -60.9300   -6.7300 N.ar  555  HIS555     -0.2268
    105  CD2       26.9550  -62.0390   -5.0180 C.ar  555  HIS555      0.1154
    106  CE1       25.1430  -61.2550   -5.9740 C.ar  555  HIS555      0.1986
    107  NE2       25.5850  -61.9290   -4.9280 N.ar  555  HIS555     -0.2212
@<TRIPOS>BOND
     1    89    90    1
     2    91    92    2
     3    91    90    1
     4    84    83    2
     5    90    93    1
     6    83    82    1
     7    81    82    1
     8    82    85    1
     9    93    94    1
    10    97    95   ar
    11    94    95    1
    12    98    99    1
    13    95    96   ar
    14    85    86    1
    15   100    99    1
    16   100   101    2
    17    86    87    1
    18    86    88    1
    19   102    99    1
    20   102   103    1
    21   104   103   ar
    22   104   106   ar
    23   103   105   ar
    24   106   107   ar
    25   105   107   ar
    26    69    67   ar
    27    69    68   ar
    28    67    65   ar
    29    68    66   ar
    30    65    64   ar
    31    56    54   ar
    32    56    57   ar
    33    54    52   ar
    34    58    57    1
    35    57    55   ar
    36    52    51    1
    37    52    53   ar
    38    59    60    1
    39    51    48    1
    40    29    27    1
    41    66    64   ar
    42    55    53   ar
    43    64    63    1
    44    28    27    1
    45    49    48    1
    46    49    50    2
    47    48    47    1
    48    26    25    2
    49    60    63    1
    50    60    61    1
    51    27    24    1
    52    79    78    1
    53    22    20   ar
    54    24    25    1
    55    24    23    1
    56    70    71    1
    57    71    74    1
    58    71    72    1
    59    61    62    2
    60    74    75    1
    61    78    80    1
    62    78    77    2
    63    20    19    1
    64    20    21   ar
    65    76    77    1
    66    76    75    1
    67    19    18    1
    68    72    73    2
    69    18    15    1
    70    46    44   ar
    71    36    34    1
    72    44    45   ar
    73    44    43    1
    74    37    35    1
    75    15    14    1
    76    15    16    1
    77    43    42    1
    78    13    11   ar
    79    35    34    1
    80    34    31    1
    81    14     8   am
    82    16    17    2
    83    42    39    1
    84    11    10    1
    85    11    12   ar
    86     4     3    2
    87    10     7    1
    88    31    32    1
    89    31    30    1
    90     8     9    2
    91     8     7    1
    92    33    32    2
    93    38    39    1
    94    39    40    1
    95     3     6   am
    96     3     2    1
    97     5     2    1
    98     7     6    1
    99     2     1    1
   100    40    41    2
