@<TRIPOS>MOLECULE
tmp/2qtcB00.pdb
 174 163 0 0 0
SMALL
GASTEIGER

@<TRIPOS>ATOM
      1  N         31.6990  -26.6220   17.8220 N.3    51  HIS51      -0.1241
      2  CA        30.2880  -26.3070   18.0930 C.3    51  HIS51       0.1621
      3  C         30.0500  -25.9840   19.5650 C.2    51  HIS51       0.2264
      4  O         30.8470  -26.3720   20.4200 O.2    51  HIS51      -0.2867
      5  CB        29.3890  -27.4930   17.7390 C.3    51  HIS51       0.0745
      6  CG        29.7070  -28.1290   16.4250 C.ar   51  HIS51       0.0817
      7  ND1       30.8960  -28.7840   16.1830 N.ar   51  HIS51      -0.2268
      8  CD2       28.9840  -28.2240   15.2880 C.ar   51  HIS51       0.1154
      9  CE1       30.8870  -29.2590   14.9520 C.ar   51  HIS51       0.1986
     10  NE2       29.7370  -28.9320   14.3880 N.ar   51  HIS51      -0.2212
     11  N         24.9330  -27.4970   20.4280 N.3    54  SER54      -0.1217
     12  CA        24.5110  -28.8460   20.7750 C.3    54  SER54       0.1889
     13  C         24.8050  -29.2040   22.2340 C.2    54  SER54       0.2288
     14  O         23.9080  -29.6910   22.9390 O.2    54  SER54      -0.2866
     15  CB        25.1380  -29.8920   19.8510 C.3    54  SER54       0.2089
     16  OG        24.5990  -31.1730   20.1860 O.3    54  SER54      -0.2183
     17  N         28.3230  -38.3000   21.9030 N.3    85  GLN85      -0.1245
     18  CA        27.9870  -37.6920   20.6220 C.3    85  GLN85       0.1566
     19  C         29.2400  -36.8770   20.2220 C.2    85  GLN85       0.2260
     20  O         29.8000  -36.1440   21.0230 O.2    85  GLN85      -0.2867
     21  CB        26.7340  -36.8120   20.8090 C.3    85  GLN85       0.0367
     22  CG        26.2210  -36.1100   19.5430 C.3    85  GLN85       0.0905
     23  CD        25.0120  -35.2470   19.8880 C.2    85  GLN85       0.2608
     24  OE1       24.9610  -34.6710   20.9790 O.2    85  GLN85      -0.2717
     25  NE2       24.0540  -35.1490   18.9750 N.am   85  GLN85      -0.0878
     26  N         30.1940  -34.0690   18.2840 N.3    87  HIS87      -0.1241
     27  CA        30.3530  -32.6160   18.3570 C.3    87  HIS87       0.1621
     28  C         30.1110  -31.9520   19.7010 C.2    87  HIS87       0.2264
     29  O         30.1290  -30.7220   19.7950 O.2    87  HIS87      -0.2867
     30  CB        29.5520  -31.9120   17.2450 C.3    87  HIS87       0.0745
     31  CG        28.1030  -32.2770   17.1950 C.ar   87  HIS87       0.0817
     32  ND1       27.6560  -33.5790   17.0640 N.ar   87  HIS87      -0.2268
     33  CD2       26.9960  -31.4990   17.2240 C.ar   87  HIS87       0.1154
     34  CE1       26.3320  -33.5840   17.0200 C.ar   87  HIS87       0.1986
     35  NE2       25.9120  -32.3350   17.1170 N.ar   87  HIS87      -0.2212
     36  N         41.7020  -28.4360   18.5740 N.3   111  ARG111     -0.1245
     37  CA        41.7690  -28.5310   17.1190 C.3   111  ARG111      0.1563
     38  C         43.1010  -28.1310   16.4730 C.2   111  ARG111      0.2260
     39  O         43.1600  -27.7690   15.2890 O.2   111  ARG111     -0.2867
     40  CB        40.6050  -27.7760   16.4920 C.3   111  ARG111      0.0307
     41  CG        39.2560  -28.4920   16.6950 C.3   111  ARG111      0.0489
     42  CD        38.1260  -27.8380   15.9160 C.3   111  ARG111      0.2205
     43  NE        36.8630  -28.5560   16.1020 N.pl3 111  ARG111     -0.0865
     44  CZ        36.0070  -28.8300   15.1280 C.cat 111  ARG111      0.5346
     45  NH1       36.2810  -28.4380   13.8800 N.pl3 111  ARG111      0.1354
     46  NH2       34.8900  -29.5130   15.4010 N.pl3 111  ARG111      0.1354
     47  N         37.0410  -34.3020   17.5610 N.3   122  TYR122     -0.1241
     48  CA        36.0510  -35.2810   17.9900 C.3   122  TYR122      0.1605
     49  C         36.6850  -36.5390   18.6020 C.2   122  TYR122      0.2264
     50  O         37.9260  -36.6530   18.6930 O.2   122  TYR122     -0.2867
     51  CB        35.1870  -35.6650   16.7750 C.3   122  TYR122      0.0534
     52  CG        34.6740  -34.4790   15.9710 C.ar  122  TYR122     -0.0201
     53  CD1       33.7980  -33.5520   16.5430 C.ar  122  TYR122     -0.0009
     54  CD2       35.0390  -34.3040   14.6240 C.ar  122  TYR122     -0.0009
     55  CE1       33.2780  -32.4550   15.7950 C.ar  122  TYR122      0.0417
     56  CE2       34.5240  -33.2220   13.8660 C.ar  122  TYR122      0.0417
     57  CZ        33.6380  -32.3030   14.4680 C.ar  122  TYR122      0.1957
     58  OH        33.0890  -31.2590   13.7450 O.3   122  TYR122     -0.2866
     59  N         31.5780  -39.3350   15.5090 N.3   137  VAL137     -0.1231
     60  CA        31.1950  -38.1740   14.7170 C.3   137  VAL137      0.1692
     61  C         30.6330  -38.5080   13.3450 C.2   137  VAL137      0.2593
     62  O         29.9230  -37.6830   12.7720 O.2   137  VAL137     -0.2718
     63  CB        32.3340  -37.1340   14.6310 C.3   137  VAL137      0.0266
     64  CG1       33.3450  -37.5240   13.5920 C.3   137  VAL137      0.0020
     65  CG2       31.7300  -35.7420   14.3650 C.3   137  VAL137      0.0020
     66  N         30.9340  -39.6830   12.7970 N.am  138  SER138     -0.1938
     67  CA        30.2990  -40.0060   11.5150 C.3   138  SER138      0.2055
     68  C         28.9720  -40.5530   12.0070 C.2   138  SER138      0.2642
     69  O         28.8860  -41.6770   12.5040 O.2   138  SER138     -0.2714
     70  CB        31.0120  -41.0860   10.7090 C.3   138  SER138      0.2130
     71  OG        30.2900  -41.2920    9.4790 O.3   138  SER138     -0.2179
     72  N         27.9490  -39.7340   11.8870 N.am  139  MET139     -0.1976
     73  CA        26.6510  -40.0970   12.4020 C.3   139  MET139      0.1605
     74  C         26.0590  -41.3890   11.8860 C.2   139  MET139      0.2287
     75  O         26.2630  -41.7790   10.7270 O.2   139  MET139     -0.2864
     76  CB        25.6980  -38.9200   12.2150 C.3   139  MET139      0.0413
     77  CG        25.8870  -37.9060   13.3600 C.3   139  MET139      0.0598
     78  SD        25.2700  -36.3660   12.9700 S.3   139  MET139     -0.1393
     79  CE        26.4550  -35.2990   13.7850 C.3   139  MET139      0.0692
     80  N         21.8520  -37.8180   18.3370 N.3   174  GLY174     -0.1210
     81  CA        21.1450  -36.5830   18.0480 C.3   174  GLY174      0.1956
     82  C         19.8280  -37.0490   17.4480 C.2   174  GLY174      0.2612
     83  O         19.7250  -38.2410   17.0800 O.2   174  GLY174     -0.2717
     84  N         18.8130  -36.1870   17.3790 N.am  175  ASP175     -0.1959
     85  CA        17.5540  -36.6350   16.7740 C.3   175  ASP175      0.1840
     86  C         17.6710  -36.6130   15.2550 C.2   175  ASP175      0.2623
     87  O         17.1290  -37.4980   14.5680 O.2   175  ASP175     -0.2715
     88  CB        16.3370  -35.8220   17.2390 C.3   175  ASP175      0.1450
     89  CG        16.5920  -34.3350   17.3150 C.2   175  ASP175      0.3671
     90  OD1       17.6980  -33.8700   17.0030 O.co2 175  ASP175     -0.2456
     91  OD2       15.6550  -33.6270   17.7200 O.co2 175  ASP175     -0.2456
     92  N         18.3870  -35.6230   14.7330 N.am  176  GLY176     -0.1940
     93  CA        18.6000  -35.5630   13.2910 C.3   176  GLY176      0.2014
     94  C         19.4050  -36.7960   12.8490 C.2   176  GLY176      0.2638
     95  O         19.1680  -37.3770   11.8060 O.2   176  GLY176     -0.2714
     96  N         20.3830  -37.1890   13.6450 N.am  177  GLU177     -0.1977
     97  CA        21.2020  -38.3640   13.3550 C.3   177  GLU177      0.1602
     98  C         20.3290  -39.6350   13.2030 C.2   177  GLU177      0.2287
     99  O         20.7110  -40.5830   12.5160 O.2   177  GLU177     -0.2864
    100  CB        22.2490  -38.5460   14.4870 C.3   177  GLU177      0.0415
    101  CG        22.8080  -39.9600   14.6130 C.3   177  GLU177      0.1163
    102  CD        23.9540  -40.0630   15.6150 C.2   177  GLU177      0.3649
    103  OE1       23.9240  -39.3370   16.6400 O.co2 177  GLU177     -0.2457
    104  OE2       24.8670  -40.8940   15.3730 O.co2 177  GLU177     -0.2457
    105  N         19.7760  -41.4130    9.7390 N.3   180  GLU180     -0.1245
    106  CA        20.7290  -42.2820    9.0260 C.3   180  GLU180      0.1567
    107  C         20.1350  -43.6960    9.1590 C.2   180  GLU180      0.2260
    108  O         19.7150  -44.1080   10.2530 O.2   180  GLU180     -0.2867
    109  CB        22.1340  -42.2600    9.6810 C.3   180  GLU180      0.0388
    110  CG        22.8520  -40.8980    9.5950 C.3   180  GLU180      0.1160
    111  CD        23.4220  -40.6380    8.2080 C.2   180  GLU180      0.3649
    112  OE1       23.0770  -41.4030    7.2910 O.co2 180  GLU180     -0.2457
    113  OE2       24.2100  -39.6790    8.0590 O.co2 180  GLU180     -0.2457
    114  N         18.9810  -36.9820   22.0500 N.3   203  ASN203     -0.1240
    115  CA        18.7790  -35.5880   22.4060 C.3   203  ASN203      0.1653
    116  C         17.7710  -35.0080   21.4200 C.2   203  ASN203      0.2266
    117  O         18.0860  -34.6790   20.2780 O.2   203  ASN203     -0.2867
    118  CB        20.0830  -34.8060   22.3720 C.3   203  ASN203      0.1155
    119  CG        19.8640  -33.3580   22.7270 C.2   203  ASN203      0.2627
    120  OD1       18.7520  -32.9820   23.1100 O.2   203  ASN203     -0.2716
    121  ND2       20.8880  -32.5530   22.6270 N.am  203  ASN203     -0.0877
    122  N         16.2240  -32.1410   20.5130 N.3   205  ASN205     -0.1240
    123  CA        16.1060  -30.6790   20.5410 C.3   205  ASN205      0.1653
    124  C         15.2700  -30.2150   19.3400 C.2   205  ASN205      0.2266
    125  O         15.1100  -29.0100   19.1050 O.2   205  ASN205     -0.2867
    126  CB        17.4840  -30.0000   20.5680 C.3   205  ASN205      0.1155
    127  CG        18.4680  -30.5780   19.5440 C.2   205  ASN205      0.2627
    128  OD1       18.0700  -31.0420   18.4880 O.2   205  ASN205     -0.2716
    129  ND2       19.7680  -30.5190   19.8610 N.am  205  ASN205     -0.0877
    130  N         15.8840  -30.2240   16.3000 N.3   207  GLN207     -0.1231
    131  CA        16.6350  -29.6680   15.1860 C.3   207  GLN207      0.1698
    132  C         17.8390  -30.4770   14.7340 C.2   207  GLN207      0.2592
    133  O         18.4780  -31.1340   15.5420 O.2   207  GLN207     -0.2718
    134  CB        17.1940  -28.2930   15.5360 C.3   207  GLN207      0.0381
    135  CG        16.3040  -27.3400   16.2840 C.3   207  GLN207      0.0905
    136  CD        16.9860  -25.9800   16.3790 C.2   207  GLN207      0.2608
    137  OE1       17.7320  -25.6010   15.4540 O.2   207  GLN207     -0.2717
    138  NE2       16.7410  -25.2400   17.4580 N.am  207  GLN207     -0.0878
    139  N         18.1350  -30.4150   13.4360 N.am  208  ARG208     -0.1966
    140  CA        19.3360  -31.0470   12.8810 C.3   208  ARG208      0.1729
    141  C         20.2050  -29.7920   12.6260 C.2   208  ARG208      0.2616
    142  O         20.0230  -28.8000   13.3280 O.2   208  ARG208     -0.2715
    143  CB        19.0370  -31.8520   11.5860 C.3   208  ARG208      0.0348
    144  CG        18.0030  -31.2430   10.6480 C.3   208  ARG208      0.0492
    145  CD        17.8680  -31.9770    9.2840 C.3   208  ARG208      0.2205
    146  NE        17.3510  -31.0060    8.3030 N.pl3 208  ARG208     -0.0865
    147  CZ        16.1630  -31.0630    7.7070 C.cat 208  ARG208      0.5346
    148  NH1       15.3190  -32.0570    7.9350 N.pl3 208  ARG208      0.1354
    149  NH2       15.7730  -30.0710    6.9270 N.pl3 208  ARG208      0.1354
    150  N         21.1170  -29.7880   11.6580 N.am  209  LEU209     -0.1977
    151  CA        21.9570  -28.5950   11.4780 C.3   209  LEU209      0.1596
    152  C         21.2800  -27.4110   10.7870 C.2   209  LEU209      0.2287
    153  O         21.2410  -26.3110   11.3420 O.2   209  LEU209     -0.2864
    154  CB        23.2560  -28.9300   10.7200 C.3   209  LEU209      0.0297
    155  CG        24.4730  -28.0160   10.9560 C.3   209  LEU209      0.0022
    156  CD1       25.1940  -28.3590   12.2450 C.3   209  LEU209      0.0001
    157  CD2       25.4380  -28.1920    9.8160 C.3   209  LEU209      0.0001
    158  N         17.9780  -26.5450   21.6360 N.3   337  LYS337     -0.1245
    159  CA        19.2770  -26.3990   21.0020 C.3   337  LYS337      0.1561
    160  C         19.7350  -24.9410   21.2220 C.2   337  LYS337      0.2260
    161  O         18.9600  -24.0120   21.0480 O.2   337  LYS337     -0.2867
    162  CB        19.1600  -26.7000   19.4970 C.3   337  LYS337      0.0271
    163  CG        20.4810  -26.9640   18.8150 C.3   337  LYS337      0.0035
    164  CD        20.2550  -27.4950   17.3800 C.3   337  LYS337      0.0206
    165  CE        21.3600  -28.4160   16.9220 C.3   337  LYS337      0.1093
    166  NZ        22.6700  -27.8280   17.2030 N.3   337  LYS337     -0.1314
    167  N         32.6450  -46.9950    5.7620 N.3   524  ASP524     -0.1239
    168  CA        32.7410  -45.9420    6.7920 C.3   524  ASP524      0.1674
    169  C         33.0280  -46.5920    8.1480 C.2   524  ASP524      0.2266
    170  O         33.6740  -46.0060    9.0210 O.2   524  ASP524     -0.2867
    171  CB        31.4630  -45.1230    6.8330 C.3   524  ASP524      0.1410
    172  CG        31.7010  -43.6360    7.1970 C.2   524  ASP524      0.3668
    173  OD1       32.8070  -43.0870    6.9800 O.co2 524  ASP524     -0.2456
    174  OD2       30.7480  -43.0160    7.6840 O.co2 524  ASP524     -0.2456
@<TRIPOS>BOND
     1   167   168    1
     2   168   171    1
     3   168   169    1
     4   171   172    1
     5   149   147    1
     6   173   172   ar
     7   172   174   ar
     8   112   111   ar
     9   147   148    1
    10   147   146    2
    11   113   111   ar
    12   169   170    2
    13   111   110    1
    14   146   145    1
    15   106   107    1
    16   106   109    1
    17   106   105    1
    18   107   108    2
    19   145   144    1
    20    71    70    1
    21   110   109    1
    22   157   155    1
    23   144   143    1
    24    70    67    1
    25   154   155    1
    26   154   151    1
    27    75    74    2
    28   152   153    2
    29   152   151    1
    30   155   156    1
    31   151   150    1
    32    67    68    1
    33    67    66    1
    34   143   140    1
    35   150   141   am
    36    95    94    2
    37    74    73    1
    38    72    68   am
    39    72    73    1
    40    68    69    2
    41    76    73    1
    42    76    77    1
    43    99    98    2
    44   141   140    1
    45   141   142    2
    46    62    61    2
    47    66    61   am
    48    94    93    1
    49    94    96   am
    50   140   139    1
    51    78    77    1
    52    78    79    1
    53    98    97    1
    54    93    92    1
    55    61    60    1
    56    97    96    1
    57    97   100    1
    58   139   132   am
    59    64    63    1
    60    58    57    1
    61    56    57   ar
    62    56    54   ar
    63    45    44    1
    64    65    63    1
    65    10     9   ar
    66    10     8   ar
    67    57    55   ar
    68   100   101    1
    69    87    86    2
    70   101   102    1
    71    54    52   ar
    72    63    60    1
    73    60    59    1
    74    92    86   am
    75   132   131    1
    76   132   133    2
    77     9     7   ar
    78    44    46    1
    79    44    43    2
    80   131   134    1
    81   131   130    1
    82    86    85    1
    83     8     6   ar
    84    39    38    2
    85   104   102   ar
    86   137   136    2
    87   134   135    1
    88   102   103   ar
    89    55    53   ar
    90    42    43    1
    91    42    41    1
    92    52    53   ar
    93    52    51    1
    94     7     6   ar
    95   135   136    1
    96   136   138   am
    97     6     5    1
    98    38    37    1
    99    40    41    1
   100    40    37    1
   101    85    88    1
   102    85    84    1
   103    51    48    1
   104   165   166    1
   105   165   164    1
   106    90    89   ar
   107    34    32   ar
   108    34    35   ar
   109    32    31   ar
   110    83    82    2
   111    35    33   ar
   112    37    36    1
   113    31    33   ar
   114    31    30    1
   115    88    89    1
   116    30    27    1
   117    89    91   ar
   118    84    82   am
   119   164   163    1
   120    82    81    1
   121    47    48    1
   122     5     2    1
   123     1     2    1
   124    48    49    1
   125    81    80    1
   126     2     3    1
   127    26    27    1
   128    27    28    1
   129   128   127    2
   130    49    50    2
   131   163   162    1
   132    25    23   am
   133   125   124    2
   134   124   123    1
   135   162   159    1
   136    22    23    1
   137    22    21    1
   138   127   129   am
   139   127   126    1
   140     3     4    2
   141    28    29    2
   142    15    16    1
   143    15    12    1
   144    23    24    2
   145    19    18    1
   146    19    20    2
   147   117   116    2
   148    11    12    1
   149   122   123    1
   150   123   126    1
   151    18    21    1
   152    18    17    1
   153    12    13    1
   154   159   160    1
   155   159   158    1
   156   161   160    2
   157   116   115    1
   158   114   115    1
   159    13    14    2
   160   118   115    1
   161   118   119    1
   162   121   119   am
   163   119   120    2
