@<TRIPOS>MOLECULE
tmp/2qtgB00.pdb
 143 133 0 0 0
SMALL
GASTEIGER

@<TRIPOS>ATOM
      1  N        -11.0530  -17.1630    7.8110 N.3    12  ALA12      -0.1231
      2  CA       -11.1070  -15.8670    7.1550 C.3    12  ALA12       0.1694
      3  C        -12.5350  -15.3580    6.8880 C.2    12  ALA12       0.2591
      4  O        -12.7610  -14.1640    6.8870 O.2    12  ALA12      -0.2718
      5  CB       -10.3320  -15.9360    5.8440 C.3    12  ALA12       0.0304
      6  N        -13.4650  -16.2730    6.6030 N.am   13  MET13      -0.1979
      7  CA       -14.8480  -15.8670    6.2400 C.3    13  MET13       0.1605
      8  C        -15.8580  -16.4790    7.2050 C.2    13  MET13       0.2287
      9  O        -15.8190  -17.6990    7.4770 O.2    13  MET13      -0.2864
     10  CB       -15.1690  -16.2830    4.8110 C.3    13  MET13       0.0413
     11  CG       -14.3090  -15.6180    3.7470 C.3    13  MET13       0.0598
     12  SD       -14.7820  -16.0580    2.0800 S.3    13  MET13      -0.1393
     13  CE       -16.1650  -14.9160    1.8710 C.3    13  MET13       0.0692
     14  N        -17.6980  -19.7360    6.3450 N.3    16  GLU16      -0.1245
     15  CA       -16.9100  -20.9630    6.5050 C.3    16  GLU16       0.1567
     16  C        -16.7960  -21.3890    7.9690 C.2    16  GLU16       0.2260
     17  O        -16.5920  -22.5630    8.2660 O.2    16  GLU16      -0.2867
     18  CB       -15.5100  -20.7740    5.9480 C.3    16  GLU16       0.0388
     19  CG       -15.4610  -20.2980    4.5220 C.3    16  GLU16       0.1160
     20  CD       -14.0490  -19.8940    4.1450 C.2    16  GLU16       0.3649
     21  OE1      -13.4170  -19.1070    4.8980 O.co2  16  GLU16      -0.2457
     22  OE2      -13.5740  -20.3630    3.1040 O.co2  16  GLU16      -0.2457
     23  N        -10.9470  -10.6390    4.2660 N.3    68  VAL68      -0.1245
     24  CA       -10.0310  -11.6860    3.7900 C.3    68  VAL68       0.1561
     25  C         -8.5920  -11.1330    3.6050 C.2    68  VAL68       0.2260
     26  O         -8.3840   -9.9130    3.6420 O.2    68  VAL68      -0.2867
     27  CB       -10.5200  -12.3390    2.4630 C.3    68  VAL68       0.0252
     28  CG1      -11.8540  -13.0830    2.6840 C.3    68  VAL68       0.0019
     29  CG2      -10.6390  -11.2790    1.3220 C.3    68  VAL68       0.0019
     30  N        -11.3900  -22.3810    2.5390 N.3    94  THR94      -0.1203
     31  CA       -11.4430  -22.7980    1.1410 C.3    94  THR94       0.1994
     32  C        -10.1640  -22.3740    0.4120 C.2    94  THR94       0.2618
     33  O         -9.3630  -21.5980    0.9610 O.2    94  THR94      -0.2717
     34  CB       -12.7280  -22.2930    0.4460 C.3    94  THR94       0.1784
     35  OG1      -12.8160  -20.8510    0.5870 O.3    94  THR94      -0.2211
     36  CG2      -13.9340  -22.9590    1.1390 C.3    94  THR94       0.0376
     37  N         -9.9560  -22.9240   -0.7800 N.am   95  CYS95      -0.1955
     38  CA        -8.7510  -22.6560   -1.5600 C.3    95  CYS95       0.1843
     39  C         -8.9410  -23.0530   -3.0300 C.2    95  CYS95       0.2626
     40  O         -9.8670  -23.8430   -3.3730 O.2    95  CYS95      -0.2714
     41  CB        -7.5350  -23.3870   -0.9510 C.3    95  CYS95       0.0997
     42  SG        -7.5570  -25.2070   -1.1060 S.3    95  CYS95      -0.0797
     43  N         -8.1030  -22.4910   -3.9030 N.am   96  GLY96      -0.1954
     44  CA        -7.8960  -23.0640   -5.2210 C.3    96  GLY96       0.1869
     45  C         -7.0130  -24.3190   -5.1330 C.2    96  GLY96       0.2309
     46  O         -6.2370  -24.4650   -4.1960 O.2    96  GLY96      -0.2863
     47  N         -4.2470  -11.9490   -3.5800 N.3   158  SER158     -0.1202
     48  CA        -5.2160  -11.8820   -4.7150 C.3   158  SER158      0.2020
     49  C         -5.9460  -13.2060   -4.9360 C.2   158  SER158      0.2618
     50  O         -5.3550  -14.3100   -4.8090 O.2   158  SER158     -0.2717
     51  CB        -4.5080  -11.4640   -6.0280 C.3   158  SER158      0.2103
     52  OG        -3.8420  -10.2190   -5.8740 O.3   158  SER158     -0.2182
     53  N         -7.2290  -13.0900   -5.3100 N.am  159  LEU159     -0.1979
     54  CA        -8.0570  -14.2370   -5.5920 C.3   159  LEU159      0.1596
     55  C         -7.7820  -14.7730   -7.0230 C.2   159  LEU159      0.2287
     56  O         -7.9040  -15.9630   -7.2640 O.2   159  LEU159     -0.2864
     57  CB        -9.5700  -13.8740   -5.4190 C.3   159  LEU159      0.0297
     58  CG       -10.6440  -14.9100   -5.8110 C.3   159  LEU159      0.0022
     59  CD1      -10.4940  -16.2530   -5.1110 C.3   159  LEU159      0.0001
     60  CD2      -12.1540  -14.3670   -5.7130 C.3   159  LEU159      0.0001
     61  N         -3.7930  -23.0840   -3.4160 N.3   177  LYS177     -0.1231
     62  CA        -3.6830  -21.6090   -3.5100 C.3   177  LYS177      0.1693
     63  C         -4.7310  -20.8990   -2.6310 C.2   177  LYS177      0.2592
     64  O         -5.9490  -21.1640   -2.7440 O.2   177  LYS177     -0.2718
     65  CB        -3.8210  -21.1910   -5.0060 C.3   177  LYS177      0.0285
     66  CG        -3.7510  -19.6590   -5.2420 C.3   177  LYS177      0.0035
     67  CD        -4.0680  -19.2750   -6.6980 C.3   177  LYS177      0.0206
     68  CE        -3.9960  -17.7380   -6.8500 C.3   177  LYS177      0.1093
     69  NZ        -5.0770  -16.9910   -6.1600 N.3   177  LYS177     -0.1314
     70  N         -4.2710  -19.9900   -1.7770 N.am  178  ASP178     -0.1960
     71  CA        -5.1500  -19.2550   -0.8510 C.3   178  ASP178      0.1840
     72  C         -4.6240  -17.8290   -0.6040 C.2   178  ASP178      0.2622
     73  O         -3.7400  -17.3440   -1.3060 O.2   178  ASP178     -0.2715
     74  CB        -5.3370  -20.0310    0.4740 C.3   178  ASP178      0.1450
     75  CG        -4.2170  -19.7570    1.4930 C.2   178  ASP178      0.3671
     76  OD1       -3.0620  -19.4690    1.0670 O.co2 178  ASP178     -0.2456
     77  OD2       -4.5020  -19.7910    2.7160 O.co2 178  ASP178     -0.2456
     78  N         -5.1820  -17.1710    0.4040 N.am  179  MET179     -0.1963
     79  CA        -4.9730  -15.7470    0.6330 C.3   179  MET179      0.1736
     80  C         -4.5570  -15.4760    2.0870 C.2   179  MET179      0.2616
     81  O         -4.2740  -14.3330    2.4420 O.2   179  MET179     -0.2715
     82  CB        -6.2360  -14.9680    0.2410 C.3   179  MET179      0.0427
     83  CG        -6.4840  -14.9450   -1.2600 C.3   179  MET179      0.0599
     84  SD        -8.0670  -14.2060   -1.7900 S.3   179  MET179     -0.1393
     85  CE        -7.8710  -12.5160   -1.2180 C.3   179  MET179      0.0692
     86  N         -4.5560  -16.5100    2.9340 N.am  180  GLU180     -0.1977
     87  CA        -4.1300  -16.3220    4.3380 C.3   180  GLU180      0.1602
     88  C         -3.0140  -17.2180    4.8970 C.2   180  GLU180      0.2287
     89  O         -2.3170  -16.7810    5.8010 O.2   180  GLU180     -0.2864
     90  CB        -5.3380  -16.3840    5.2930 C.3   180  GLU180      0.0415
     91  CG        -6.4490  -15.2990    4.9760 C.3   180  GLU180      0.1163
     92  CD        -7.5030  -15.7890    3.9960 C.2   180  GLU180      0.3649
     93  OE1       -7.5550  -17.0360    3.8120 O.co2 180  GLU180     -0.2457
     94  OE2       -8.2900  -14.9180    3.4730 O.co2 180  GLU180     -0.2457
     95  N         -7.4870  -27.1470    4.1410 N.3   199  LYS199     -0.1245
     96  CA        -7.7990  -26.2920    3.0080 C.3   199  LYS199      0.1561
     97  C         -8.7030  -27.0460    2.0620 C.2   199  LYS199      0.2260
     98  O         -8.3180  -28.0970    1.5390 O.2   199  LYS199     -0.2867
     99  CB        -6.5010  -25.8070    2.3680 C.3   199  LYS199      0.0271
    100  CG        -5.7560  -24.7800    3.2660 C.3   199  LYS199      0.0035
    101  CD        -6.4050  -23.3780    3.2970 C.3   199  LYS199      0.0206
    102  CE        -5.8140  -22.5190    4.4280 C.3   199  LYS199      0.1093
    103  NZ        -6.2630  -21.0750    4.2560 N.3   199  LYS199     -0.1314
    104  N        -12.3020  -25.3080   -3.5580 N.3   202  THR202     -0.1203
    105  CA       -13.5440  -24.7640   -4.1420 C.3   202  THR202      0.1994
    106  C        -13.4770  -24.5840   -5.6550 C.2   202  THR202      0.2617
    107  O        -14.5060  -24.4770   -6.3260 O.2   202  THR202     -0.2717
    108  CB       -13.8900  -23.3930   -3.5360 C.3   202  THR202      0.1784
    109  OG1      -12.7270  -22.5290   -3.5600 O.3   202  THR202     -0.2211
    110  CG2      -14.3940  -23.5980   -2.1300 C.3   202  THR202      0.0376
    111  N        -12.2640  -24.6060   -6.2070 N.am  203  ASP203     -0.1973
    112  CA       -12.0580  -24.2880   -7.6340 C.3   203  ASP203      0.1709
    113  C        -10.7050  -24.7830   -8.1500 C.2   203  ASP203      0.2293
    114  O         -9.7410  -24.8940   -7.3850 O.2   203  ASP203     -0.2864
    115  CB       -12.2090  -22.7580   -7.8820 C.3   203  ASP203      0.1436
    116  CG       -11.2570  -21.9490   -7.0660 C.2   203  ASP203      0.3671
    117  OD1      -11.5060  -21.7780   -5.8620 O.co2 203  ASP203     -0.2456
    118  OD2      -10.2350  -21.5230   -7.6130 O.co2 203  ASP203     -0.2456
    119  N         -7.5980  -24.1270  -10.3950 N.3   205  VAL205     -0.1245
    120  CA        -6.8300  -23.0010  -10.9030 C.3   205  VAL205      0.1561
    121  C         -6.3930  -23.3070  -12.3460 C.2   205  VAL205      0.2260
    122  O         -6.3400  -22.4090  -13.1940 O.2   205  VAL205     -0.2867
    123  CB        -5.6080  -22.6920   -9.9380 C.3   205  VAL205      0.0252
    124  CG1       -4.6910  -21.6200  -10.5470 C.3   205  VAL205      0.0019
    125  CG2       -6.1170  -22.2310   -8.5790 C.3   205  VAL205      0.0019
    126  N        -12.1060  -18.6440  -12.0630 N.3   211  THR211     -0.1218
    127  CA       -11.8810  -18.7800  -10.6190 C.3   211  THR211      0.1862
    128  C        -12.9770  -18.2130   -9.7230 C.2   211  THR211      0.2287
    129  O        -13.4750  -18.9100   -8.8300 O.2   211  THR211     -0.2866
    130  CB       -10.5300  -18.1720  -10.1990 C.3   211  THR211      0.1770
    131  OG1       -9.4770  -18.9050  -10.8400 O.3   211  THR211     -0.2211
    132  CG2      -10.3510  -18.2000   -8.6490 C.3   211  THR211      0.0375
    133  N        -15.3420  -20.6070   -7.4660 N.3   215  PHE215     -0.1241
    134  CA       -15.2280  -20.3900   -6.0110 C.3   215  PHE215      0.1605
    135  C        -16.5670  -20.0690   -5.3570 C.2   215  PHE215      0.2264
    136  O        -16.8820  -20.6280   -4.3180 O.2   215  PHE215     -0.2867
    137  CB       -14.1910  -19.2680   -5.6970 C.3   215  PHE215      0.0534
    138  CG       -14.3320  -18.6560   -4.3180 C.ar  215  PHE215     -0.0203
    139  CD1      -13.9520  -19.3720   -3.1670 C.ar  215  PHE215     -0.0042
    140  CD2      -14.8120  -17.3390   -4.1680 C.ar  215  PHE215     -0.0042
    141  CE1      -14.0690  -18.7990   -1.8790 C.ar  215  PHE215     -0.0003
    142  CE2      -14.9460  -16.7600   -2.8760 C.ar  215  PHE215     -0.0003
    143  CZ       -14.5750  -17.4870   -1.7430 C.ar  215  PHE215     -0.0000
@<TRIPOS>BOND
     1   122   121    2
     2   121   120    1
     3   126   127    1
     4   120   119    1
     5   120   123    1
     6   131   130    1
     7   127   130    1
     8   127   128    1
     9   124   123    1
    10   130   132    1
    11   123   125    1
    12   128   129    2
    13   113   112    1
    14   113   114    2
    15   115   112    1
    16   115   116    1
    17   112   111    1
    18   118   116   ar
    19   133   134    1
    20    56    55    2
    21   116   117   ar
    22    55    54    1
    23    68    67    1
    24    68    69    1
    25    67    66    1
    26   107   106    2
    27   111   106   am
    28    51    52    1
    29    51    48    1
    30   134   137    1
    31   134   135    1
    32    58    60    1
    33    58    57    1
    34    58    59    1
    35   137   138    1
    36   106   105    1
    37    54    57    1
    38    54    53    1
    39   135   136    2
    40    53    49   am
    41    66    65    1
    42    44    45    1
    43    44    43    1
    44    45    46    2
    45    65    62    1
    46    49    50    2
    47    49    48    1
    48    48    47    1
    49   138   140   ar
    50   138   139   ar
    51   140   142   ar
    52   105   104    1
    53   105   108    1
    54    43    39   am
    55   109   108    1
    56   108   110    1
    57    62    61    1
    58    62    63    1
    59    40    39    2
    60   139   141   ar
    61    39    38    1
    62   142   143   ar
    63    64    63    2
    64    63    70   am
    65   141   143   ar
    66    84    83    1
    67    84    85    1
    68    70    71    1
    69    38    41    1
    70    38    37    1
    71    73    72    2
    72    83    82    1
    73    42    41    1
    74    71    72    1
    75    71    74    1
    76    37    32   am
    77    72    78   am
    78    82    79    1
    79    78    79    1
    80    32    33    2
    81    32    31    1
    82    34    35    1
    83    34    36    1
    84    34    31    1
    85    74    75    1
    86    79    80    1
    87    76    75   ar
    88    31    30    1
    89    29    27    1
    90    75    77   ar
    91    98    97    2
    92    13    12    1
    93    97    96    1
    94    12    11    1
    95    80    81    2
    96    80    86   am
    97    99    96    1
    98    99   100    1
    99    27    28    1
   100    27    24    1
   101    86    87    1
   102    96    95    1
   103    22    20   ar
   104   100   101    1
   105   101   102    1
   106    94    92   ar
   107    25    26    2
   108    25    24    1
   109    11    10    1
   110    24    23    1
   111    93    92   ar
   112    92    91    1
   113    20    19    1
   114    20    21   ar
   115   103   102    1
   116    87    88    1
   117    87    90    1
   118    19    18    1
   119    10     7    1
   120    88    89    2
   121    91    90    1
   122     5     2    1
   123    18    15    1
   124     7     6    1
   125     7     8    1
   126    14    15    1
   127    15    16    1
   128     6     3   am
   129     4     3    2
   130     3     2    1
   131     2     1    1
   132     8     9    2
   133    16    17    2
