@<TRIPOS>MOLECULE
tmp/2qtkB04.pdb
 107 105 0 0 0
SMALL
GASTEIGER

@<TRIPOS>ATOM
      1  N         16.1620   67.6700   57.2260 N.3   193  HIS193     -0.1241
      2  CA        16.2690   66.4230   56.5030 C.3   193  HIS193      0.1621
      3  C         17.6650   65.9060   56.6840 C.2   193  HIS193      0.2264
      4  O         18.5950   66.6770   56.8820 O.2   193  HIS193     -0.2867
      5  CB        16.0070   66.6140   55.0200 C.3   193  HIS193      0.0745
      6  CG        15.8070   65.3270   54.2880 C.ar  193  HIS193      0.0817
      7  ND1       16.1250   65.1660   52.9580 N.ar  193  HIS193     -0.2268
      8  CD2       15.3100   64.1380   54.7030 C.ar  193  HIS193      0.1154
      9  CE1       15.8330   63.9330   52.5850 C.ar  193  HIS193      0.1986
     10  NE2       15.3370   63.2890   53.6250 N.ar  193  HIS193     -0.2212
     11  N         20.1540   62.4790   55.1250 N.3   195  GLN195     -0.1245
     12  CA        20.1580   61.3320   54.2360 C.3   195  GLN195      0.1566
     13  C         21.5460   60.7920   53.9610 C.2   195  GLN195      0.2260
     14  O         22.3140   61.3920   53.2080 O.2   195  GLN195     -0.2867
     15  CB        19.4930   61.6950   52.9100 C.3   195  GLN195      0.0367
     16  CG        18.9450   60.5000   52.1660 C.3   195  GLN195      0.0905
     17  CD        17.4410   60.5750   52.0280 C.2   195  GLN195      0.2608
     18  OE1       16.9220   61.3570   51.2270 O.2   195  GLN195     -0.2717
     19  NE2       16.7260   59.7790   52.8230 N.am  195  GLN195     -0.0878
     20  N         24.2310   63.5930   53.9690 N.3   202  LEU202     -0.1231
     21  CA        23.8370   64.9410   53.5840 C.3   202  LEU202      0.1693
     22  C         22.6340   65.4110   54.3650 C.2   202  LEU202      0.2593
     23  O         21.6050   64.7410   54.3950 O.2   202  LEU202     -0.2718
     24  CB        23.5340   65.0080   52.0900 C.3   202  LEU202      0.0284
     25  CG        24.6620   64.4820   51.2080 C.3   202  LEU202      0.0019
     26  CD1       24.5170   62.9800   51.0900 C.3   202  LEU202      0.0001
     27  CD2       24.6130   65.1170   49.8360 C.3   202  LEU202      0.0001
     28  N         22.7720   66.5710   54.9980 N.am  203  GLY203     -0.1942
     29  CA        21.6840   67.1220   55.7850 C.3   203  GLY203      0.2014
     30  C         21.2860   68.5220   55.3490 C.2   203  GLY203      0.2638
     31  O         22.0510   69.2270   54.6860 O.2   203  GLY203     -0.2714
     32  N         20.0800   68.9300   55.7180 N.am  204  ALA204     -0.1977
     33  CA        19.5990   70.2490   55.3630 C.3   204  ALA204      0.1597
     34  C         18.7420   70.8270   56.4780 C.2   204  ALA204      0.2287
     35  O         17.9850   70.1170   57.1380 O.2   204  ALA204     -0.2864
     36  CB        18.8020   70.1830   54.0690 C.3   204  ALA204      0.0319
     37  N         23.2570   73.7730   54.9550 N.3   231  PHE231     -0.1227
     38  CA        23.5390   72.4530   54.4030 C.3   231  PHE231      0.1736
     39  C         24.8520   71.8950   54.8950 C.2   231  PHE231      0.2596
     40  O         25.8830   72.5730   54.8480 O.2   231  PHE231     -0.2718
     41  CB        23.5680   72.5250   52.8830 C.3   231  PHE231      0.0547
     42  CG        22.3470   73.1480   52.2970 C.ar  231  PHE231     -0.0202
     43  CD1       21.2080   72.3870   52.0660 C.ar  231  PHE231     -0.0042
     44  CD2       22.3190   74.5140   52.0130 C.ar  231  PHE231     -0.0042
     45  CE1       20.0520   72.9750   51.5640 C.ar  231  PHE231     -0.0003
     46  CE2       21.1630   75.1220   51.5090 C.ar  231  PHE231     -0.0003
     47  CZ        20.0280   74.3500   51.2830 C.ar  231  PHE231     -0.0000
     48  N         24.8030   70.6540   55.3680 N.am  232  SER232     -0.1938
     49  CA        25.9840   69.9700   55.8640 C.3   232  SER232      0.2055
     50  C         26.3720   68.8400   54.9080 C.2   232  SER232      0.2642
     51  O         25.5350   68.3050   54.1760 O.2   232  SER232     -0.2714
     52  CB        25.7240   69.4070   57.2650 C.3   232  SER232      0.2130
     53  OG        24.7300   68.3940   57.2420 O.3   232  SER232     -0.2179
     54  N         27.6560   68.5090   54.9070 N.am  233  ALA233     -0.1977
     55  CA        28.2050   67.4440   54.0760 C.3   233  ALA233      0.1597
     56  C         29.2290   66.7350   54.9500 C.2   233  ALA233      0.2287
     57  O         30.3530   67.2180   55.1350 O.2   233  ALA233     -0.2864
     58  CB        28.8780   68.0230   52.8260 C.3   233  ALA233      0.0319
     59  N         31.3630   69.3710   56.3440 N.3   240  PHE240     -0.1227
     60  CA        31.4120   70.6000   55.5610 C.3   240  PHE240      0.1736
     61  C         30.0600   71.2900   55.6440 C.2   240  PHE240      0.2595
     62  O         29.0300   70.6310   55.6730 O.2   240  PHE240     -0.2718
     63  CB        31.7420   70.2790   54.0980 C.3   240  PHE240      0.0547
     64  CG        33.0940   69.6550   53.9060 C.ar  240  PHE240     -0.0202
     65  CD1       34.2420   70.4440   53.8970 C.ar  240  PHE240     -0.0042
     66  CD2       33.2240   68.2760   53.7840 C.ar  240  PHE240     -0.0042
     67  CE1       35.5060   69.8720   53.7730 C.ar  240  PHE240     -0.0003
     68  CE2       34.4760   67.6900   53.6610 C.ar  240  PHE240     -0.0003
     69  CZ        35.6260   68.4910   53.6550 C.ar  240  PHE240     -0.0000
     70  N         30.0500   72.6150   55.6920 N.am  241  TYR241     -0.1962
     71  CA        28.7790   73.3260   55.7500 C.3   241  TYR241      0.1771
     72  C         28.7780   74.5320   54.8280 C.2   241  TYR241      0.2619
     73  O         29.8030   75.1990   54.6630 O.2   241  TYR241     -0.2715
     74  CB        28.4720   73.8610   57.1570 C.3   241  TYR241      0.0574
     75  CG        28.4000   72.8710   58.2930 C.ar  241  TYR241     -0.0198
     76  CD1       29.5620   72.3510   58.8690 C.ar  241  TYR241     -0.0009
     77  CD2       27.1740   72.5550   58.8810 C.ar  241  TYR241     -0.0009
     78  CE1       29.5010   71.5590   60.0160 C.ar  241  TYR241      0.0417
     79  CE2       27.1030   71.7630   60.0210 C.ar  241  TYR241      0.0417
     80  CZ        28.2660   71.2750   60.5870 C.ar  241  TYR241      0.1957
     81  OH        28.2020   70.5410   61.7480 O.3   241  TYR241     -0.2866
     82  N         27.6090   74.8130   54.2570 N.am  242  LEU242     -0.1977
     83  CA        27.4070   75.9730   53.3970 C.3   242  LEU242      0.1596
     84  C         26.0830   76.6070   53.8240 C.2   242  LEU242      0.2287
     85  O         25.0840   75.9040   53.9890 O.2   242  LEU242     -0.2864
     86  CB        27.3220   75.5670   51.9290 C.3   242  LEU242      0.0297
     87  CG        26.6820   76.6430   51.0460 C.3   242  LEU242      0.0022
     88  CD1       27.6420   77.8170   50.8630 C.3   242  LEU242      0.0001
     89  CD2       26.2960   76.0320   49.7110 C.3   242  LEU242      0.0001
     90  N         30.4740   79.3800   55.1870 N.3   283  VAL283     -0.1231
     91  CA        31.1280   78.1030   54.9590 C.3   283  VAL283      0.1692
     92  C         31.6880   77.6820   56.2930 C.2   283  VAL283      0.2591
     93  O         32.2670   78.4920   57.0250 O.2   283  VAL283     -0.2718
     94  CB        32.2930   78.1800   53.9560 C.3   283  VAL283      0.0266
     95  CG1       31.7860   77.9350   52.5520 C.3   283  VAL283      0.0020
     96  CG2       32.9690   79.5260   54.0510 C.3   283  VAL283      0.0020
     97  N         31.4930   76.4160   56.6250 N.am  284  ARG284     -0.1980
     98  CA        32.0120   75.9160   57.8810 C.3   284  ARG284      0.1597
     99  C         32.6670   74.5570   57.7140 C.2   284  ARG284      0.2287
    100  O         32.2320   73.7630   56.8840 O.2   284  ARG284     -0.2864
    101  CB        30.9020   75.8130   58.9200 C.3   284  ARG284      0.0334
    102  CG        31.4810   75.7020   60.3010 C.3   284  ARG284      0.0492
    103  CD        30.9270   74.5490   61.0710 C.3   284  ARG284      0.2205
    104  NE        29.6800   74.8920   61.7290 N.pl3 284  ARG284     -0.0865
    105  CZ        29.1510   74.1720   62.7050 C.cat 284  ARG284      0.5346
    106  NH1       29.7640   73.0780   63.1250 N.pl3 284  ARG284      0.1354
    107  NH2       28.0140   74.5460   63.2610 N.pl3 284  ARG284      0.1354
@<TRIPOS>BOND
     1    89    87    1
     2    27    25    1
     3    88    87    1
     4    87    86    1
     5    26    25    1
     6    25    24    1
     7    18    17    2
     8    47    46   ar
     9    47    45   ar
    10    46    44   ar
    11    45    43   ar
    12    86    83    1
    13    44    42   ar
    14    17    16    1
    15    17    19   am
    16    43    42   ar
    17    24    21    1
    18    16    15    1
    19    42    41    1
    20    95    94    1
    21     9     7   ar
    22     9    10   ar
    23    58    55    1
    24    41    38    1
    25    15    12    1
    26     7     6   ar
    27    14    13    2
    28    83    84    1
    29    83    82    1
    30    21    20    1
    31    21    22    1
    32    10     8   ar
    33    69    68   ar
    34    69    67   ar
    35    68    66   ar
    36    67    65   ar
    37    66    64   ar
    38    84    85    2
    39    65    64   ar
    40    64    63    1
    41    94    96    1
    42    94    91    1
    43    13    12    1
    44    36    33    1
    45    55    54    1
    46    55    56    1
    47    63    60    1
    48    51    50    2
    49    12    11    1
    50    82    72   am
    51     6     8   ar
    52     6     5    1
    53    22    23    2
    54    22    28   am
    55    38    39    1
    56    38    37    1
    57    73    72    2
    58    31    30    2
    59    72    71    1
    60    40    39    2
    61    39    48   am
    62    54    50   am
    63    50    49    1
    64    56    57    2
    65    91    90    1
    66    91    92    1
    67    28    29    1
    68     5     2    1
    69    30    32   am
    70    30    29    1
    71    33    32    1
    72    33    34    1
    73    48    49    1
    74    60    61    1
    75    60    59    1
    76    61    62    2
    77    61    70   am
    78    70    71    1
    79    71    74    1
    80    49    52    1
    81    92    97   am
    82    92    93    2
    83    34    35    2
    84     2     3    1
    85     2     1    1
    86    97    98    1
    87     3     4    2
    88   100    99    2
    89    74    75    1
    90    53    52    1
    91    99    98    1
    92    98   101    1
    93    75    76   ar
    94    75    77   ar
    95    76    78   ar
    96    77    79   ar
    97   101   102    1
    98    78    80   ar
    99    79    80   ar
   100   102   103    1
   101    80    81    1
   102   103   104    1
   103   104   105    2
   104   105   106    1
   105   105   107    1
