@<TRIPOS>MOLECULE
tmp/2qtkA06.pdb
 85 78 0 0 0
SMALL
GASTEIGER

@<TRIPOS>ATOM
      1  N          3.3880   16.1260   77.9540 N.3    87  SER87      -0.1217
      2  CA         3.4750   17.5870   77.9120 C.3    87  SER87       0.1889
      3  C          4.0100   18.1550   79.2290 C.2    87  SER87       0.2288
      4  O          3.6430   17.6880   80.3040 O.2    87  SER87      -0.2866
      5  CB         2.0950   18.1750   77.6160 C.3    87  SER87       0.2089
      6  OG         1.5640   17.6370   76.4140 O.3    87  SER87      -0.2183
      7  N          5.0970   21.7840   81.6260 N.3    89  LEU89      -0.1245
      8  CA         4.8020   23.1880   81.8420 C.3    89  LEU89       0.1561
      9  C          5.7670   23.6330   82.9200 C.2    89  LEU89       0.2260
     10  O          5.9810   22.9230   83.9050 O.2    89  LEU89      -0.2867
     11  CB         3.3510   23.3800   82.3180 C.3    89  LEU89       0.0270
     12  CG         2.7550   24.7940   82.4770 C.3    89  LEU89       0.0019
     13  CD1        1.2670   24.6930   82.7290 C.3    89  LEU89       0.0001
     14  CD2        3.4010   25.5320   83.6160 C.3    89  LEU89       0.0001
     15  N          6.7680   27.0920   85.2460 N.3    91  ILE91      -0.1245
     16  CA         6.4870   28.4560   85.6400 C.3    91  ILE91       0.1561
     17  C          7.6080   28.9030   86.5590 C.2    91  ILE91       0.2260
     18  O          7.9980   28.1690   87.4650 O.2    91  ILE91      -0.2867
     19  CB         5.1770   28.5530   86.3840 C.3    91  ILE91       0.0252
     20  CG1        4.0720   27.8970   85.5600 C.3    91  ILE91       0.0019
     21  CG2        4.8580   30.0040   86.6290 C.3    91  ILE91       0.0019
     22  CD1        2.7530   27.7710   86.2840 C.3    91  ILE91       0.0001
     23  N          6.5870   31.6020   81.6480 N.3   116  PHE116     -0.1241
     24  CA         6.1850   30.1990   81.5820 C.3   116  PHE116      0.1605
     25  C          6.3490   29.6460   80.1690 C.2   116  PHE116      0.2264
     26  O          6.3580   30.3960   79.1840 O.2   116  PHE116     -0.2867
     27  CB         4.7320   30.0120   82.0500 C.3   116  PHE116      0.0534
     28  CG         3.7060   30.4920   81.0660 C.ar  116  PHE116     -0.0203
     29  CD1        3.4290   31.8490   80.9310 C.ar  116  PHE116     -0.0042
     30  CD2        3.0310   29.5870   80.2540 C.ar  116  PHE116     -0.0042
     31  CE1        2.4900   32.3030   79.9910 C.ar  116  PHE116     -0.0003
     32  CE2        2.0940   30.0270   79.3140 C.ar  116  PHE116     -0.0003
     33  CZ         1.8230   31.3870   79.1820 C.ar  116  PHE116     -0.0000
     34  N          5.3590   25.9070   77.7430 N.3   118  VAL118     -0.1245
     35  CA         4.7680   24.5880   77.6200 C.3   118  VAL118      0.1561
     36  C          5.4350   23.8650   76.4580 C.2   118  VAL118      0.2260
     37  O          5.7330   24.4720   75.4280 O.2   118  VAL118     -0.2867
     38  CB         3.2440   24.6880   77.3370 C.3   118  VAL118      0.0252
     39  CG1        2.6030   23.3100   77.3910 C.3   118  VAL118      0.0019
     40  CG2        2.5800   25.6130   78.3450 C.3   118  VAL118      0.0019
     41  N          4.6780   20.3230   74.4330 N.3   120  SER120     -0.1217
     42  CA         3.8740   19.1250   74.2270 C.3   120  SER120      0.1889
     43  C          4.4370   18.1990   73.1470 C.2   120  SER120      0.2288
     44  O          4.8440   18.6510   72.0750 O.2   120  SER120     -0.2866
     45  CB         2.4420   19.5180   73.8690 C.3   120  SER120      0.2089
     46  OG         1.6760   18.3770   73.5230 O.3   120  SER120     -0.2183
     47  N          2.6930   15.0010   72.4110 N.3   122  GLU122     -0.1231
     48  CA         1.6700   13.9600   72.3730 C.3   122  GLU122      0.1699
     49  C          1.6170   13.1760   71.0580 C.2   122  GLU122      0.2592
     50  O          1.2440   12.0140   71.0490 O.2   122  GLU122     -0.2718
     51  CB         0.2870   14.5620   72.6810 C.3   122  GLU122      0.0402
     52  CG         0.1740   15.3020   74.0430 C.3   122  GLU122      0.1161
     53  CD         0.4310   14.4160   75.2750 C.2   122  GLU122      0.3649
     54  OE1        0.4950   14.9660   76.3940 O.co2 122  GLU122     -0.2457
     55  OE2        0.5680   13.1800   75.1390 O.co2 122  GLU122     -0.2457
     56  N          1.9690   13.8070   69.9470 N.am  123  LEU123     -0.1980
     57  CA         1.9700   13.1180   68.6570 C.3   123  LEU123      0.1596
     58  C          3.4080   12.7340   68.3160 C.2   123  LEU123      0.2287
     59  O          4.3250   13.5460   68.4720 O.2   123  LEU123     -0.2864
     60  CB         1.4140   14.0270   67.5540 C.3   123  LEU123      0.0297
     61  CG        -0.0860   14.0670   67.2440 C.3   123  LEU123      0.0022
     62  CD1       -0.8420   13.0530   68.1020 C.3   123  LEU123      0.0001
     63  CD2       -0.5980   15.4800   67.4630 C.3   123  LEU123      0.0001
     64  N          5.2910   20.4950   70.2000 N.3   128  LEU128     -0.1231
     65  CA         4.6950   21.8220   70.2150 C.3   128  LEU128      0.1693
     66  C          5.1800   22.6570   71.3900 C.2   128  LEU128      0.2592
     67  O          5.3750   22.1500   72.5000 O.2   128  LEU128     -0.2718
     68  CB         3.1700   21.7180   70.2330 C.3   128  LEU128      0.0284
     69  CG         2.4630   21.5030   68.8850 C.3   128  LEU128      0.0019
     70  CD1        3.4720   21.3890   67.7340 C.3   128  LEU128      0.0001
     71  CD2        1.5930   20.2660   68.9750 C.3   128  LEU128      0.0001
     72  N          5.3840   23.9450   71.1400 N.am  129  GLN129     -0.1966
     73  CA         5.8620   24.8430   72.1790 C.3   129  GLN129      0.1733
     74  C          5.1530   26.1810   72.2000 C.2   129  GLN129      0.2616
     75  O          4.6830   26.6690   71.1810 O.2   129  GLN129     -0.2715
     76  CB         7.3620   25.0810   72.0230 C.3   129  GLN129      0.0408
     77  CG         8.2210   23.8990   72.4230 C.3   129  GLN129      0.0908
     78  CD         9.6420   24.3130   72.7250 C.2   129  GLN129      0.2608
     79  OE1        9.8710   25.2220   73.5160 O.2   129  GLN129     -0.2717
     80  NE2       10.6030   23.6500   72.1020 N.am  129  GLN129     -0.0878
     81  N          5.0920   26.7730   73.3810 N.am  130  ALA130     -0.1977
     82  CA         4.4590   28.0700   73.5590 C.3   130  ALA130      0.1597
     83  C          4.8030   28.5530   74.9570 C.2   130  ALA130      0.2287
     84  O          5.1300   27.7620   75.8360 O.2   130  ALA130     -0.2864
     85  CB         2.9600   27.9480   73.3970 C.3   130  ALA130      0.0319
@<TRIPOS>BOND
     1    61    63    1
     2    61    60    1
     3    61    62    1
     4    60    57    1
     5    70    69    1
     6    58    59    2
     7    58    57    1
     8    57    56    1
     9    69    71    1
    10    69    68    1
    11    56    49   am
    12    64    65    1
    13    65    68    1
    14    65    66    1
    15    50    49    2
    16    49    48    1
    17    72    66   am
    18    72    73    1
    19    75    74    2
    20    66    67    2
    21    76    73    1
    22    76    77    1
    23    44    43    2
    24    80    78   am
    25    73    74    1
    26    74    81   am
    27    48    47    1
    28    48    51    1
    29    77    78    1
    30    51    52    1
    31    78    79    2
    32    43    42    1
    33    81    82    1
    34    85    82    1
    35    46    45    1
    36    82    83    1
    37    45    42    1
    38    52    53    1
    39    42    41    1
    40    83    84    2
    41    55    53   ar
    42    53    54   ar
    43    37    36    2
    44     6     5    1
    45    36    35    1
    46    38    39    1
    47    38    35    1
    48    38    40    1
    49     5     2    1
    50    35    34    1
    51     2     1    1
    52     2     3    1
    53    33    32   ar
    54    33    31   ar
    55    26    25    2
    56     3     4    2
    57    32    30   ar
    58    31    29   ar
    59    25    24    1
    60    30    28   ar
    61    29    28   ar
    62    28    27    1
    63    24    23    1
    64    24    27    1
    65     7     8    1
    66     8    11    1
    67     8     9    1
    68    11    12    1
    69    12    13    1
    70    12    14    1
    71     9    10    2
    72    15    16    1
    73    20    22    1
    74    20    19    1
    75    16    19    1
    76    16    17    1
    77    19    21    1
    78    17    18    2
