@<TRIPOS>MOLECULE
tmp/2qtkB08.pdb
 79 76 0 0 0
SMALL
GASTEIGER

@<TRIPOS>ATOM
      1  N          9.3620   62.2790   61.2910 N.3   166  PHE166     -0.1241
      2  CA         8.9610   61.0820   60.5530 C.3   166  PHE166      0.1605
      3  C         10.0550   60.5830   59.6020 C.2   166  PHE166      0.2264
      4  O         11.2190   60.9750   59.7190 O.2   166  PHE166     -0.2867
      5  CB         7.6920   61.3550   59.7550 C.3   166  PHE166      0.0534
      6  CG         7.8720   62.3770   58.6840 C.ar  166  PHE166     -0.0203
      7  CD1        7.9050   63.7310   58.9960 C.ar  166  PHE166     -0.0042
      8  CD2        8.0510   61.9870   57.3620 C.ar  166  PHE166     -0.0042
      9  CE1        8.1170   64.6870   58.0010 C.ar  166  PHE166     -0.0003
     10  CE2        8.2640   62.9270   56.3650 C.ar  166  PHE166     -0.0003
     11  CZ         8.2970   64.2830   56.6830 C.ar  166  PHE166     -0.0000
     12  N          9.3080   68.3280   60.7480 N.3   173  LEU173     -0.1245
     13  CA         8.6660   69.5710   60.3560 C.3   173  LEU173      0.1561
     14  C          8.3230   70.3520   61.6080 C.2   173  LEU173      0.2260
     15  O          8.2520   69.7900   62.7000 O.2   173  LEU173     -0.2867
     16  CB         7.3970   69.2990   59.5530 C.3   173  LEU173      0.0270
     17  CG         7.6380   68.7870   58.1280 C.3   173  LEU173      0.0019
     18  CD1        6.3030   68.4840   57.4380 C.3   173  LEU173      0.0001
     19  CD2        8.4300   69.8360   57.3560 C.3   173  LEU173      0.0001
     20  N          8.7420   78.5890   60.2380 N.3   189  ALA189     -0.1231
     21  CA         8.5930   77.3330   59.5330 C.3   189  ALA189      0.1694
     22  C          9.9730   76.7010   59.4330 C.2   189  ALA189      0.2592
     23  O         10.9570   77.3690   59.1030 O.2   189  ALA189     -0.2718
     24  CB         8.0170   77.5860   58.1450 C.3   189  ALA189      0.0304
     25  N         10.0510   75.4110   59.7120 N.am  190  ASN190     -0.1960
     26  CA        11.3330   74.7330   59.6640 C.3   190  ASN190      0.1819
     27  C         11.2390   73.3150   59.1290 C.2   190  ASN190      0.2621
     28  O         10.2970   72.5750   59.4310 O.2   190  ASN190     -0.2715
     29  CB        11.9540   74.7280   61.0650 C.3   190  ASN190      0.1195
     30  CG        13.1040   73.7600   61.1950 C.2   190  ASN190      0.2630
     31  OD1       14.1150   73.8900   60.5230 O.2   190  ASN190     -0.2716
     32  ND2       12.9510   72.7750   62.0660 N.am  190  ASN190     -0.0877
     33  N         12.2180   72.9570   58.3080 N.am  191  LEU191     -0.1977
     34  CA        12.3070   71.6200   57.7540 C.3   191  LEU191      0.1596
     35  C         13.6950   71.1120   58.0720 C.2   191  LEU191      0.2287
     36  O         14.6620   71.8640   58.0300 O.2   191  LEU191     -0.2864
     37  CB        12.1280   71.6230   56.2410 C.3   191  LEU191      0.0297
     38  CG        12.3770   70.2470   55.6020 C.3   191  LEU191      0.0022
     39  CD1       11.2660   69.2800   56.0430 C.3   191  LEU191      0.0001
     40  CD2       12.4110   70.3680   54.0810 C.3   191  LEU191      0.0001
     41  N         16.2490   74.0230   56.7500 N.3   206  LEU206     -0.1231
     42  CA        15.5690   75.1340   56.0940 C.3   206  LEU206      0.1693
     43  C         14.6350   75.8740   57.0390 C.2   206  LEU206      0.2593
     44  O         13.8240   75.2630   57.7410 O.2   206  LEU206     -0.2718
     45  CB        14.7620   74.6150   54.8990 C.3   206  LEU206      0.0284
     46  CG        15.5150   74.2940   53.5980 C.3   206  LEU206      0.0019
     47  CD1       16.7410   73.4410   53.8750 C.3   206  LEU206      0.0001
     48  CD2       14.5680   73.5940   52.6430 C.3   206  LEU206      0.0001
     49  N         14.7290   77.1940   57.0490 N.am  207  GLY207     -0.1942
     50  CA        13.8540   77.9530   57.9200 C.3   207  GLY207      0.2014
     51  C         13.2250   79.1800   57.2870 C.2   207  GLY207      0.2638
     52  O         13.7610   79.7670   56.3440 O.2   207  GLY207     -0.2714
     53  N         12.0710   79.5620   57.8180 N.am  208  LEU208     -0.1977
     54  CA        11.3460   80.7350   57.3540 C.3   208  LEU208      0.1596
     55  C         10.7270   81.4570   58.5480 C.2   208  LEU208      0.2287
     56  O         10.0280   80.8520   59.3650 O.2   208  LEU208     -0.2864
     57  CB        10.2450   80.3290   56.3790 C.3   208  LEU208      0.0297
     58  CG         9.3460   81.4790   55.9350 C.3   208  LEU208      0.0022
     59  CD1       10.1810   82.5890   55.3380 C.3   208  LEU208      0.0001
     60  CD2        8.3500   80.9710   54.9330 C.3   208  LEU208      0.0001
     61  N         14.7270   83.9910   55.6560 N.3   227  VAL227     -0.1231
     62  CA        14.7420   82.6300   55.1700 C.3   227  VAL227      0.1692
     63  C         16.1820   82.2040   55.1910 C.2   227  VAL227      0.2592
     64  O         17.0640   83.0090   54.8890 O.2   227  VAL227     -0.2718
     65  CB        14.2180   82.5390   53.7430 C.3   227  VAL227      0.0266
     66  CG1       12.8990   83.2710   53.6510 C.3   227  VAL227      0.0020
     67  CG2       15.2290   83.1110   52.7650 C.3   227  VAL227      0.0020
     68  N         16.4370   80.9590   55.5730 N.am  228  TYR228     -0.1976
     69  CA        17.8110   80.4760   55.6000 C.3   228  TYR228      0.1639
     70  C         17.8380   79.0190   55.2180 C.2   228  TYR228      0.2290
     71  O         16.8180   78.3270   55.2730 O.2   228  TYR228     -0.2864
     72  CB        18.4260   80.6340   56.9910 C.3   228  TYR228      0.0560
     73  CG        17.8510   79.6740   58.0020 C.ar  228  TYR228     -0.0198
     74  CD1       18.2390   78.3300   58.0210 C.ar  228  TYR228     -0.0009
     75  CD2       16.8600   80.0900   58.8950 C.ar  228  TYR228     -0.0009
     76  CE1       17.6450   77.4260   58.8970 C.ar  228  TYR228      0.0417
     77  CE2       16.2650   79.1970   59.7720 C.ar  228  TYR228      0.0417
     78  CZ        16.6560   77.8650   59.7720 C.ar  228  TYR228      0.1957
     79  OH        16.0590   76.9800   60.6500 O.3   228  TYR228     -0.2866
@<TRIPOS>BOND
     1    48    46    1
     2    67    65    1
     3    46    47    1
     4    46    45    1
     5    66    65    1
     6    65    62    1
     7    40    38    1
     8    64    63    2
     9    45    42    1
    10    60    58    1
    11    62    63    1
    12    62    61    1
    13    63    68   am
    14    70    71    2
    15    70    69    1
    16    59    58    1
    17    68    69    1
    18    69    72    1
    19    38    39    1
    20    38    37    1
    21    58    57    1
    22    42    41    1
    23    42    43    1
    24    37    34    1
    25    52    51    2
    26    10    11   ar
    27    10     8   ar
    28    57    54    1
    29    11     9   ar
    30    72    73    1
    31    43    49   am
    32    43    44    2
    33    49    50    1
    34    51    53   am
    35    51    50    1
    36    54    53    1
    37    54    55    1
    38    19    17    1
    39     8     6   ar
    40    18    17    1
    41    34    35    1
    42    34    33    1
    43     9     7   ar
    44    73    74   ar
    45    73    75   ar
    46    74    76   ar
    47    36    35    2
    48    17    16    1
    49    24    21    1
    50    33    27   am
    51    55    56    2
    52     6     7   ar
    53     6     5    1
    54    75    77   ar
    55    76    78   ar
    56    23    22    2
    57    27    28    2
    58    27    26    1
    59    22    21    1
    60    22    25   am
    61    21    20    1
    62    16    13    1
    63     3     4    2
    64     3     2    1
    65    26    25    1
    66    26    29    1
    67     5     2    1
    68    77    78   ar
    69    78    79    1
    70    13    12    1
    71    13    14    1
    72    31    30    2
    73     2     1    1
    74    29    30    1
    75    30    32   am
    76    14    15    2
