@<TRIPOS>MOLECULE
tmp/2qtkB03.pdb
 87 83 0 0 0
SMALL
GASTEIGER

@<TRIPOS>ATOM
      1  N         16.2490   74.0230   56.7500 N.3   206  LEU206     -0.1245
      2  CA        15.5690   75.1340   56.0940 C.3   206  LEU206      0.1561
      3  C         14.6350   75.8740   57.0390 C.2   206  LEU206      0.2260
      4  O         13.8240   75.2630   57.7410 O.2   206  LEU206     -0.2867
      5  CB        14.7620   74.6150   54.8990 C.3   206  LEU206      0.0270
      6  CG        15.5150   74.2940   53.5980 C.3   206  LEU206      0.0019
      7  CD1       16.7410   73.4410   53.8750 C.3   206  LEU206      0.0001
      8  CD2       14.5680   73.5940   52.6430 C.3   206  LEU206      0.0001
      9  N         14.7270   83.9910   55.6560 N.3   227  VAL227     -0.1231
     10  CA        14.7420   82.6300   55.1700 C.3   227  VAL227      0.1692
     11  C         16.1820   82.2040   55.1910 C.2   227  VAL227      0.2592
     12  O         17.0640   83.0090   54.8890 O.2   227  VAL227     -0.2718
     13  CB        14.2180   82.5390   53.7430 C.3   227  VAL227      0.0266
     14  CG1       12.8990   83.2710   53.6510 C.3   227  VAL227      0.0020
     15  CG2       15.2290   83.1110   52.7650 C.3   227  VAL227      0.0020
     16  N         16.4370   80.9590   55.5730 N.am  228  TYR228     -0.1962
     17  CA        17.8110   80.4760   55.6000 C.3   228  TYR228      0.1771
     18  C         17.8380   79.0190   55.2180 C.2   228  TYR228      0.2620
     19  O         16.8180   78.3270   55.2730 O.2   228  TYR228     -0.2715
     20  CB        18.4260   80.6340   56.9910 C.3   228  TYR228      0.0574
     21  CG        17.8510   79.6740   58.0020 C.ar  228  TYR228     -0.0198
     22  CD1       18.2390   78.3300   58.0210 C.ar  228  TYR228     -0.0009
     23  CD2       16.8600   80.0900   58.8950 C.ar  228  TYR228     -0.0009
     24  CE1       17.6450   77.4260   58.8970 C.ar  228  TYR228      0.0417
     25  CE2       16.2650   79.1970   59.7720 C.ar  228  TYR228      0.0417
     26  CZ        16.6560   77.8650   59.7720 C.ar  228  TYR228      0.1957
     27  OH        16.0590   76.9800   60.6500 O.3   228  TYR228     -0.2866
     28  N         19.0220   78.5620   54.8350 N.am  229  GLY229     -0.1954
     29  CA        19.2160   77.1790   54.4650 C.3   229  GLY229      0.1869
     30  C         20.6180   76.7970   54.8840 C.2   229  GLY229      0.2309
     31  O         21.5910   77.3800   54.3990 O.2   229  GLY229     -0.2863
     32  N         23.2570   73.7730   54.9550 N.3   231  PHE231     -0.1241
     33  CA        23.5390   72.4530   54.4030 C.3   231  PHE231      0.1605
     34  C         24.8520   71.8950   54.8950 C.2   231  PHE231      0.2264
     35  O         25.8830   72.5730   54.8480 O.2   231  PHE231     -0.2867
     36  CB        23.5680   72.5250   52.8830 C.3   231  PHE231      0.0534
     37  CG        22.3470   73.1480   52.2970 C.ar  231  PHE231     -0.0203
     38  CD1       21.2080   72.3870   52.0660 C.ar  231  PHE231     -0.0042
     39  CD2       22.3190   74.5140   52.0130 C.ar  231  PHE231     -0.0042
     40  CE1       20.0520   72.9750   51.5640 C.ar  231  PHE231     -0.0003
     41  CE2       21.1630   75.1220   51.5090 C.ar  231  PHE231     -0.0003
     42  CZ        20.0280   74.3500   51.2830 C.ar  231  PHE231     -0.0000
     43  N         27.6090   74.8130   54.2570 N.3   242  LEU242     -0.1245
     44  CA        27.4070   75.9730   53.3970 C.3   242  LEU242      0.1561
     45  C         26.0830   76.6070   53.8240 C.2   242  LEU242      0.2260
     46  O         25.0840   75.9040   53.9890 O.2   242  LEU242     -0.2867
     47  CB        27.3220   75.5670   51.9290 C.3   242  LEU242      0.0270
     48  CG        26.6820   76.6430   51.0460 C.3   242  LEU242      0.0019
     49  CD1       27.6420   77.8170   50.8630 C.3   242  LEU242      0.0001
     50  CD2       26.2960   76.0320   49.7110 C.3   242  LEU242      0.0001
     51  N         23.1920   79.7910   53.1170 N.3   244  LEU244     -0.1231
     52  CA        22.6290   80.8680   52.3100 C.3   244  LEU244      0.1693
     53  C         21.4710   81.4810   53.1090 C.2   244  LEU244      0.2592
     54  O         20.5630   80.7680   53.5550 O.2   244  LEU244     -0.2718
     55  CB        22.1220   80.3130   50.9840 C.3   244  LEU244      0.0284
     56  CG        23.1150   79.8820   49.8940 C.3   244  LEU244      0.0019
     57  CD1       24.5470   79.8460   50.3960 C.3   244  LEU244      0.0001
     58  CD2       22.6860   78.5160   49.3850 C.3   244  LEU244      0.0001
     59  N         21.4890   82.7980   53.2810 N.am  245  GLN245     -0.1966
     60  CA        20.4580   83.4620   54.0660 C.3   245  GLN245      0.1733
     61  C         20.0410   84.8340   53.5410 C.2   245  GLN245      0.2616
     62  O         20.8720   85.6200   53.0970 O.2   245  GLN245     -0.2715
     63  CB        20.9660   83.5940   55.4940 C.3   245  GLN245      0.0408
     64  CG        20.0800   84.3610   56.4370 C.3   245  GLN245      0.0908
     65  CD        20.5920   84.2590   57.8610 C.2   245  GLN245      0.2608
     66  OE1       20.6290   83.1670   58.4470 O.2   245  GLN245     -0.2717
     67  NE2       21.0060   85.3890   58.4240 N.am  245  GLN245     -0.0878
     68  N         18.7520   85.1310   53.6040 N.am  246  LYS246     -0.1977
     69  CA        18.2720   86.4330   53.1430 C.3   246  LYS246      0.1596
     70  C         17.2230   87.0650   54.0580 C.2   246  LYS246      0.2287
     71  O         16.3740   86.3740   54.6260 O.2   246  LYS246     -0.2864
     72  CB        17.6950   86.3110   51.7370 C.3   246  LYS246      0.0298
     73  CG        16.9040   87.5110   51.2860 C.3   246  LYS246      0.0038
     74  CD        17.7940   88.6940   50.9860 C.3   246  LYS246      0.0206
     75  CE        16.9590   89.8380   50.4160 C.3   246  LYS246      0.1093
     76  NZ        17.8270   90.9180   49.8710 N.3   246  LYS246     -0.1314
     77  N         21.7360   90.0320   52.9840 N.3   279  ARG279     -0.1245
     78  CA        21.8640   88.7570   52.2950 C.3   279  ARG279      0.1563
     79  C         23.2030   88.1830   52.7820 C.2   279  ARG279      0.2260
     80  O         24.2070   88.9010   52.8480 O.2   279  ARG279     -0.2867
     81  CB        21.8920   88.9880   50.7870 C.3   279  ARG279      0.0307
     82  CG        21.9040   87.7200   49.9600 C.3   279  ARG279      0.0489
     83  CD        21.9960   88.0370   48.4740 C.3   279  ARG279      0.2205
     84  NE        20.8100   88.7240   47.9640 N.pl3 279  ARG279     -0.0865
     85  CZ        19.6350   88.1380   47.7520 C.cat 279  ARG279      0.5346
     86  NH1       19.4790   86.8450   48.0040 N.pl3 279  ARG279      0.1354
     87  NH2       18.6170   88.8450   47.2800 N.pl3 279  ARG279      0.1354
@<TRIPOS>BOND
     1    87    85    1
     2    85    84    2
     3    85    86    1
     4    84    83    1
     5    83    82    1
     6    58    56    1
     7    50    48    1
     8    76    75    1
     9    56    57    1
    10    56    55    1
    11    82    81    1
    12    75    74    1
    13    81    78    1
    14    49    48    1
    15    55    52    1
    16    74    73    1
    17    48    47    1
    18    42    41   ar
    19    42    40   ar
    20    73    72    1
    21    41    39   ar
    22    40    38   ar
    23    72    69    1
    24    47    44    1
    25    39    37   ar
    26    38    37   ar
    27    78    79    1
    28    78    77    1
    29    37    36    1
    30    52    53    1
    31    52    51    1
    32     8     6    1
    33    15    13    1
    34    79    80    2
    35    36    33    1
    36    62    61    2
    37    53    59   am
    38    53    54    2
    39    69    68    1
    40    69    70    1
    41    59    60    1
    42    44    45    1
    43    44    43    1
    44    61    68   am
    45    61    60    1
    46     6     7    1
    47     6     5    1
    48    14    13    1
    49    13    10    1
    50    45    46    2
    51    70    71    2
    52    60    63    1
    53    31    30    2
    54    33    34    1
    55    33    32    1
    56    29    28    1
    57    29    30    1
    58    28    18   am
    59    35    34    2
    60    12    11    2
    61     5     2    1
    62    10    11    1
    63    10     9    1
    64    11    16   am
    65    18    19    2
    66    18    17    1
    67    63    64    1
    68    16    17    1
    69    17    20    1
    70     2     1    1
    71     2     3    1
    72    64    65    1
    73    20    21    1
    74     3     4    2
    75    65    67   am
    76    65    66    2
    77    21    22   ar
    78    21    23   ar
    79    22    24   ar
    80    23    25   ar
    81    24    26   ar
    82    25    26   ar
    83    26    27    1
