@<TRIPOS>MOLECULE
tmp/2qtkB01.pdb
 99 96 0 0 0
SMALL
GASTEIGER

@<TRIPOS>ATOM
      1  N         33.7130   74.3050   58.5030 N.3   285  TYR285     -0.1241
      2  CA        34.4360   73.0250   58.4730 C.3   285  TYR285      0.1605
      3  C         34.6790   72.4800   59.8930 C.2   285  TYR285      0.2264
      4  O         35.1590   73.2010   60.7700 O.2   285  TYR285     -0.2867
      5  CB        35.7800   73.1790   57.7570 C.3   285  TYR285      0.0534
      6  CG        36.5610   71.8940   57.7360 C.ar  285  TYR285     -0.0201
      7  CD1       36.1040   70.7930   57.0170 C.ar  285  TYR285     -0.0009
      8  CD2       37.7300   71.7610   58.4720 C.ar  285  TYR285     -0.0009
      9  CE1       36.7940   69.5830   57.0310 C.ar  285  TYR285      0.0417
     10  CE2       38.4270   70.5610   58.4980 C.ar  285  TYR285      0.0417
     11  CZ        37.9560   69.4720   57.7750 C.ar  285  TYR285      0.1957
     12  OH        38.6570   68.2780   57.7990 O.3   285  TYR285     -0.2866
     13  N         36.1780   69.0300   62.3100 N.3   287  TYR287     -0.1241
     14  CA        37.0390   67.8510   62.3250 C.3   287  TYR287      0.1605
     15  C         37.1020   67.1770   63.6930 C.2   287  TYR287      0.2264
     16  O         37.2430   67.8380   64.7260 O.2   287  TYR287     -0.2867
     17  CB        38.4620   68.2160   61.8840 C.3   287  TYR287      0.0534
     18  CG        39.4310   67.0430   61.8180 C.ar  287  TYR287     -0.0201
     19  CD1       39.1610   65.9220   61.0220 C.ar  287  TYR287     -0.0009
     20  CD2       40.6190   67.0520   62.5470 C.ar  287  TYR287     -0.0009
     21  CE1       40.0470   64.8460   60.9580 C.ar  287  TYR287      0.0417
     22  CE2       41.5130   65.9770   62.4890 C.ar  287  TYR287      0.0417
     23  CZ        41.2200   64.8780   61.6970 C.ar  287  TYR287      0.1957
     24  OH        42.0910   63.8070   61.6680 O.3   287  TYR287     -0.2866
     25  N         39.2890   65.3620   65.8420 N.3   289  PHE289     -0.1241
     26  CA        40.7200   65.0970   65.9880 C.3   289  PHE289      0.1605
     27  C         41.0490   63.6990   66.5170 C.2   289  PHE289      0.2264
     28  O         42.1960   63.4060   66.8800 O.2   289  PHE289     -0.2867
     29  CB        41.3580   66.1760   66.8670 C.3   289  PHE289      0.0534
     30  CG        41.6590   67.4460   66.1270 C.ar  289  PHE289     -0.0203
     31  CD1       42.8230   67.5660   65.3740 C.ar  289  PHE289     -0.0042
     32  CD2       40.7660   68.5070   66.1510 C.ar  289  PHE289     -0.0042
     33  CE1       43.0960   68.7300   64.6520 C.ar  289  PHE289     -0.0003
     34  CE2       41.0270   69.6700   65.4350 C.ar  289  PHE289     -0.0003
     35  CZ        42.1980   69.7810   64.6830 C.ar  289  PHE289     -0.0000
     36  N         37.1500   70.4490   66.4410 N.3   299  GLY299     -0.1210
     37  CA        37.5360   71.7370   65.9060 C.3   299  GLY299      0.1956
     38  C         36.6360   72.2300   64.7940 C.2   299  GLY299      0.2612
     39  O         36.1390   71.4420   63.9810 O.2   299  GLY299     -0.2717
     40  N         36.4390   73.5480   64.7690 N.am  300  MET300     -0.1965
     41  CA        35.6070   74.2130   63.7700 C.3   300  MET300      0.1736
     42  C         36.2180   75.5290   63.3090 C.2   300  MET300      0.2616
     43  O         36.8510   76.2540   64.0830 O.2   300  MET300     -0.2715
     44  CB        34.2010   74.5020   64.3260 C.3   300  MET300      0.0427
     45  CG        33.3560   75.4470   63.4540 C.3   300  MET300      0.0599
     46  SD        31.8620   76.1350   64.2550 S.3   300  MET300     -0.1393
     47  CE        32.5340   77.4520   65.2190 C.3   300  MET300      0.0692
     48  N         36.0230   75.8060   62.0270 N.am  301  VAL301     -0.1977
     49  CA        36.4510   77.0430   61.3930 C.3   301  VAL301      0.1596
     50  C         35.2480   77.4630   60.5730 C.2   301  VAL301      0.2287
     51  O         34.6590   76.6340   59.8720 O.2   301  VAL301     -0.2864
     52  CB        37.6320   76.8450   60.4090 C.3   301  VAL301      0.0276
     53  CG1       38.9280   77.2200   61.0830 C.3   301  VAL301      0.0022
     54  CG2       37.6800   75.3950   59.9160 C.3   301  VAL301      0.0022
     55  N         34.5700   85.6120   61.2500 N.3   322  ARG322     -0.1245
     56  CA        35.3160   84.3930   61.0620 C.3   322  ARG322      0.1563
     57  C         35.6500   83.8660   62.4480 C.2   322  ARG322      0.2260
     58  O         36.3560   84.5240   63.2210 O.2   322  ARG322     -0.2867
     59  CB        36.5860   84.6970   60.2790 C.3   322  ARG322      0.0307
     60  CG        37.3870   83.4760   59.8630 C.3   322  ARG322      0.0489
     61  CD        38.8500   83.7120   60.1670 C.3   322  ARG322      0.2205
     62  NE        39.0680   83.7610   61.6070 N.pl3 322  ARG322     -0.0865
     63  CZ        40.1500   84.2520   62.1990 C.cat 322  ARG322      0.5346
     64  NH1       41.1530   84.7610   61.4860 N.pl3 322  ARG322      0.1354
     65  NH2       40.2230   84.2230   63.5180 N.pl3 322  ARG322      0.1354
     66  N         37.0070   80.5330   64.8460 N.3   324  VAL324     -0.1231
     67  CA        37.8010   79.3170   64.8520 C.3   324  VAL324      0.1692
     68  C         37.7580   78.8370   66.2850 C.2   324  VAL324      0.2592
     69  O         37.8410   79.6430   67.2070 O.2   324  VAL324     -0.2718
     70  CB        39.2580   79.5860   64.4510 C.3   324  VAL324      0.0266
     71  CG1       40.0590   78.3110   64.5570 C.3   324  VAL324      0.0020
     72  CG2       39.3110   80.1230   63.0320 C.3   324  VAL324      0.0020
     73  N         37.6100   77.5340   66.4850 N.am  325  GLU325     -0.1966
     74  CA        37.5670   77.0240   67.8500 C.3   325  GLU325      0.1733
     75  C         38.1490   75.6280   68.0450 C.2   325  GLU325      0.2616
     76  O         38.1380   74.7870   67.1440 O.2   325  GLU325     -0.2715
     77  CB        36.1260   77.0460   68.3800 C.3   325  GLU325      0.0429
     78  CG        35.9680   76.5270   69.8110 C.3   325  GLU325      0.1163
     79  CD        34.5330   76.6130   70.3060 C.2   325  GLU325      0.3649
     80  OE1       34.3070   76.4910   71.5300 O.co2 325  GLU325     -0.2457
     81  OE2       33.6210   76.8000   69.4710 O.co2 325  GLU325     -0.2457
     82  N         38.6760   75.4140   69.2430 N.am  326  LEU326     -0.1977
     83  CA        39.2290   74.1360   69.6380 C.3   326  LEU326      0.1596
     84  C         38.5510   73.7940   70.9530 C.2   326  LEU326      0.2287
     85  O         38.6390   74.5440   71.9240 O.2   326  LEU326     -0.2864
     86  CB        40.7350   74.2290   69.8230 C.3   326  LEU326      0.0297
     87  CG        41.5080   74.0780   68.5140 C.3   326  LEU326      0.0022
     88  CD1       42.9860   74.2920   68.7650 C.3   326  LEU326      0.0001
     89  CD2       41.2570   72.6930   67.9290 C.3   326  LEU326      0.0001
     90  N         38.4580   82.0170   68.8340 N.3   344  HIS344     -0.1241
     91  CA        38.8130   83.3460   68.3910 C.3   344  HIS344      0.1621
     92  C         37.7180   83.7650   67.4350 C.2   344  HIS344      0.2264
     93  O         36.9720   82.9320   66.9130 O.2   344  HIS344     -0.2867
     94  CB        40.1490   83.3230   67.6620 C.3   344  HIS344      0.0745
     95  CG        40.6250   84.6730   67.2270 C.ar  344  HIS344      0.0817
     96  ND1       41.0600   85.6340   68.1160 N.ar  344  HIS344     -0.2268
     97  CD2       40.7190   85.2310   65.9970 C.ar  344  HIS344      0.1154
     98  CE1       41.3990   86.7230   67.4500 C.ar  344  HIS344      0.1986
     99  NE2       41.2010   86.5050   66.1620 N.ar  344  HIS344     -0.2212
@<TRIPOS>BOND
     1     7     9   ar
     2     7     6   ar
     3     9    11   ar
     4     6     5    1
     5     6     8   ar
     6     5     2    1
     7    11    12    1
     8    11    10   ar
     9     8    10   ar
    10     2     1    1
    11     2     3    1
    12    60    61    1
    13    60    59    1
    14    51    50    2
    15     3     4    2
    16    54    52    1
    17    61    62    1
    18    59    56    1
    19    52    53    1
    20    52    49    1
    21    50    49    1
    22    21    19   ar
    23    21    23   ar
    24    19    18   ar
    25    56    55    1
    26    56    57    1
    27    49    48    1
    28    64    63    1
    29    62    63    2
    30    24    23    1
    31    23    22   ar
    32    18    17    1
    33    18    20   ar
    34    17    14    1
    35    48    42   am
    36    63    65    1
    37    13    14    1
    38    14    15    1
    39    57    58    2
    40    22    20   ar
    41    72    70    1
    42    42    41    1
    43    42    43    2
    44    45    46    1
    45    45    44    1
    46    15    16    2
    47    41    44    1
    48    41    40    1
    49    39    38    2
    50    46    47    1
    51    70    71    1
    52    70    67    1
    53    33    35   ar
    54    33    31   ar
    55    35    34   ar
    56    40    38   am
    57    38    37    1
    58    66    67    1
    59    67    68    1
    60    31    30   ar
    61    34    32   ar
    62    25    26    1
    63    37    36    1
    64    26    27    1
    65    26    29    1
    66    97    99   ar
    67    97    95   ar
    68    30    32   ar
    69    30    29    1
    70    99    98   ar
    71    68    73   am
    72    68    69    2
    73    73    74    1
    74    27    28    2
    75    93    92    2
    76    76    75    2
    77    95    94    1
    78    95    96   ar
    79    92    91    1
    80    98    96   ar
    81    94    91    1
    82    74    75    1
    83    74    77    1
    84    89    87    1
    85    75    82   am
    86    77    78    1
    87    91    90    1
    88    87    88    1
    89    87    86    1
    90    82    83    1
    91    81    79   ar
    92    83    86    1
    93    83    84    1
    94    78    79    1
    95    79    80   ar
    96    84    85    2
