@<TRIPOS>MOLECULE
tmp/2qtkB02.pdb
 79 78 0 0 0
SMALL
GASTEIGER

@<TRIPOS>ATOM
      1  N          5.3560   79.7830   82.4490 N.3   113  PHE113     -0.1241
      2  CA         4.9760   78.3720   82.3380 C.3   113  PHE113      0.1605
      3  C          5.0540   77.8630   80.9020 C.2   113  PHE113      0.2264
      4  O          4.9900   78.6390   79.9460 O.2   113  PHE113     -0.2867
      5  CB         3.5560   78.1470   82.8470 C.3   113  PHE113      0.0534
      6  CG         2.5020   78.5930   81.8850 C.ar  113  PHE113     -0.0203
      7  CD1        2.1220   79.9270   81.8150 C.ar  113  PHE113     -0.0042
      8  CD2        1.9100   77.6840   81.0180 C.ar  113  PHE113     -0.0042
      9  CE1        1.1600   80.3500   80.8910 C.ar  113  PHE113     -0.0003
     10  CE2        0.9540   78.0960   80.0970 C.ar  113  PHE113     -0.0003
     11  CZ         0.5780   79.4330   80.0330 C.ar  113  PHE113     -0.0000
     12  N          3.4720   74.9410   74.1670 N.3   127  ALA127     -0.1231
     13  CA         2.8240   76.2210   74.3480 C.3   127  ALA127      0.1694
     14  C          3.2320   76.7050   75.7210 C.2   127  ALA127      0.2593
     15  O          3.6980   75.9250   76.5460 O.2   127  ALA127     -0.2718
     16  CB         1.3190   76.0740   74.2490 C.3   127  ALA127      0.0304
     17  N          3.0740   77.9980   75.9610 N.am  128  GLY128     -0.1942
     18  CA         3.4560   78.5410   77.2500 C.3   128  GLY128      0.2014
     19  C          3.6650   80.0360   77.1920 C.2   128  GLY128      0.2638
     20  O          3.5730   80.6550   76.1310 O.2   128  GLY128     -0.2714
     21  N          3.9610   80.6180   78.3420 N.am  129  ARG129     -0.1977
     22  CA         4.1620   82.0470   78.4150 C.3   129  ARG129      0.1597
     23  C          5.2380   82.4050   79.4360 C.2   129  ARG129      0.2287
     24  O          5.4350   81.7030   80.4290 O.2   129  ARG129     -0.2864
     25  CB         2.8300   82.7070   78.7700 C.3   129  ARG129      0.0334
     26  CG         2.8820   84.2040   78.9530 C.3   129  ARG129      0.0492
     27  CD         1.4960   84.7990   78.7970 C.3   129  ARG129      0.2205
     28  NE         1.4560   86.2060   79.1810 N.pl3 129  ARG129     -0.0865
     29  CZ         1.5550   86.6350   80.4350 C.cat 129  ARG129      0.5346
     30  NH1        1.6980   85.7590   81.4210 N.pl3 129  ARG129      0.1354
     31  NH2        1.5120   87.9360   80.7020 N.pl3 129  ARG129      0.1354
     32  N          4.2020   84.8810   74.7410 N.3   158  ASN158     -0.1225
     33  CA         3.5400   83.5800   74.7460 C.3   158  ASN158      0.1785
     34  C          3.7040   82.9190   73.3810 C.2   158  ASN158      0.2597
     35  O          3.9150   83.5920   72.3730 O.2   158  ASN158     -0.2718
     36  CB         2.0610   83.7180   75.1140 C.3   158  ASN158      0.1169
     37  CG         1.4100   84.8980   74.4520 C.2   158  ASN158      0.2627
     38  OD1        1.1870   84.9020   73.2400 O.2   158  ASN158     -0.2716
     39  ND2        1.1010   85.9230   75.2490 N.am  158  ASN158     -0.0877
     40  N          3.6110   81.5970   73.3490 N.am  159  TYR159     -0.1962
     41  CA         3.8060   80.8690   72.1020 C.3   159  TYR159      0.1771
     42  C          3.0490   79.5500   72.0450 C.2   159  TYR159      0.2619
     43  O          2.3820   79.1400   73.0010 O.2   159  TYR159     -0.2715
     44  CB         5.2840   80.5430   71.9480 C.3   159  TYR159      0.0574
     45  CG         5.7640   79.6710   73.0790 C.ar  159  TYR159     -0.0198
     46  CD1        6.0870   80.2290   74.3120 C.ar  159  TYR159     -0.0009
     47  CD2        5.8440   78.2830   72.9380 C.ar  159  TYR159     -0.0009
     48  CE1        6.4850   79.4390   75.3830 C.ar  159  TYR159      0.0417
     49  CE2        6.2410   77.4760   74.0020 C.ar  159  TYR159      0.0417
     50  CZ         6.5680   78.0710   75.2260 C.ar  159  TYR159      0.1957
     51  OH         7.0340   77.3230   76.2830 O.3   159  TYR159     -0.2866
     52  N          3.2170   78.8830   70.9100 N.am  160  ALA160     -0.1977
     53  CA         2.6360   77.5750   70.6400 C.3   160  ALA160      0.1597
     54  C          3.3420   77.0470   69.3930 C.2   160  ALA160      0.2287
     55  O          3.5670   77.7930   68.4300 O.2   160  ALA160     -0.2864
     56  CB         1.1420   77.6900   70.4010 C.3   160  ALA160      0.0319
     57  N          4.4170   79.8700   66.4300 N.3   177  HIS177     -0.1226
     58  CA         3.8520   81.2050   66.3970 C.3   177  HIS177      0.1752
     59  C          4.0770   81.7670   67.7880 C.2   177  HIS177      0.2597
     60  O          3.6760   81.1640   68.7730 O.2   177  HIS177     -0.2718
     61  CB         2.3510   81.1460   66.0760 C.3   177  HIS177      0.0759
     62  CG         2.0360   80.4950   64.7570 C.ar  177  HIS177      0.0818
     63  ND1        2.3180   81.0880   63.5410 N.ar  177  HIS177     -0.2268
     64  CD2        1.4830   79.2920   64.4630 C.ar  177  HIS177      0.1154
     65  CE1        1.9520   80.2810   62.5610 C.ar  177  HIS177      0.1986
     66  NE2        1.4420   79.1840   63.0930 N.ar  177  HIS177     -0.2212
     67  N          4.7470   82.9080   67.8710 N.am  178  GLY178     -0.1942
     68  CA         5.0050   83.5200   69.1560 C.3   178  GLY178      0.2014
     69  C          4.5720   84.9710   69.1370 C.2   178  GLY178      0.2638
     70  O          4.3440   85.5390   68.0670 O.2   178  GLY178     -0.2714
     71  N          4.4510   85.5720   70.3170 N.am  179  GLN179     -0.1977
     72  CA         4.0470   86.9710   70.4180 C.3   179  GLN179      0.1601
     73  C          4.6170   87.7060   71.6230 C.2   179  GLN179      0.2287
     74  O          4.3860   87.3150   72.7650 O.2   179  GLN179     -0.2864
     75  CB         2.5300   87.0860   70.4710 C.3   179  GLN179      0.0394
     76  CG         2.0600   88.4770   70.8150 C.3   179  GLN179      0.0908
     77  CD         0.5980   88.5170   71.2030 C.2   179  GLN179      0.2608
     78  OE1        0.1740   87.8190   72.1210 O.2   179  GLN179     -0.2717
     79  NE2       -0.1820   89.3420   70.5080 N.am  179  GLN179     -0.0878
@<TRIPOS>BOND
     1    65    66   ar
     2    65    63   ar
     3    66    64   ar
     4    63    62   ar
     5    64    62   ar
     6    62    61    1
     7    61    58    1
     8    58    57    1
     9    58    59    1
    10    59    67   am
    11    59    60    2
    12    67    68    1
    13    70    69    2
    14    55    54    2
    15    69    68    1
    16    69    71   am
    17    54    53    1
    18    71    72    1
    19    56    53    1
    20    72    75    1
    21    72    73    1
    22    75    76    1
    23    79    77   am
    24    53    52    1
    25    76    77    1
    26    52    42   am
    27    77    78    2
    28    73    74    2
    29    44    41    1
    30    44    45    1
    31    42    41    1
    32    42    43    2
    33    41    40    1
    34    35    34    2
    35    47    45   ar
    36    47    49   ar
    37    45    46   ar
    38    38    37    2
    39    40    34   am
    40    34    33    1
    41    49    50   ar
    42    12    13    1
    43    16    13    1
    44    46    48   ar
    45    13    14    1
    46    37    36    1
    47    37    39   am
    48    32    33    1
    49    33    36    1
    50    50    48   ar
    51    50    51    1
    52    14    17   am
    53    14    15    2
    54    17    18    1
    55    20    19    2
    56    19    18    1
    57    19    21   am
    58    21    22    1
    59    22    25    1
    60    22    23    1
    61    25    26    1
    62    27    26    1
    63    27    28    1
    64    28    29    2
    65    23    24    2
    66     4     3    2
    67    11    10   ar
    68    11     9   ar
    69    10     8   ar
    70    29    31    1
    71    29    30    1
    72     9     7   ar
    73     3     2    1
    74     8     6   ar
    75     7     6   ar
    76     6     5    1
    77     2     1    1
    78     2     5    1
