@<TRIPOS>MOLECULE
tmp/2qtkA04.pdb
 99 96 0 0 0
SMALL
GASTEIGER

@<TRIPOS>ATOM
      1  N         36.3130   25.7220   59.3730 N.3   288  TYR288     -0.1241
      2  CA        37.0140   24.4400   59.4250 C.3   288  TYR288      0.1605
      3  C         37.2060   24.0120   60.8880 C.2   288  TYR288      0.2264
      4  O         37.7610   24.7710   61.6800 O.2   288  TYR288     -0.2867
      5  CB        38.3810   24.5460   58.7340 C.3   288  TYR288      0.0534
      6  CG        39.2160   23.2890   58.8470 C.ar  288  TYR288     -0.0201
      7  CD1       38.8750   22.1370   58.1440 C.ar  288  TYR288     -0.0009
      8  CD2       40.3230   23.2400   59.6940 C.ar  288  TYR288     -0.0009
      9  CE1       39.6160   20.9570   58.2860 C.ar  288  TYR288      0.0417
     10  CE2       41.0720   22.0740   59.8460 C.ar  288  TYR288      0.0417
     11  CZ        40.7180   20.9300   59.1400 C.ar  288  TYR288      0.1957
     12  OH        41.4650   19.7700   59.2780 O.3   288  TYR288     -0.2866
     13  N         38.5470   20.7110   63.4960 N.3   290  TYR290     -0.1241
     14  CA        39.4140   19.5320   63.4750 C.3   290  TYR290      0.1605
     15  C         39.5440   18.8400   64.8330 C.2   290  TYR290      0.2264
     16  O         39.7220   19.4980   65.8570 O.2   290  TYR290     -0.2867
     17  CB        40.8200   19.9090   62.9720 C.3   290  TYR290      0.0534
     18  CG        41.7670   18.7330   62.8440 C.ar  290  TYR290     -0.0201
     19  CD1       41.5480   17.7360   61.8930 C.ar  290  TYR290     -0.0009
     20  CD2       42.8460   18.5850   63.7090 C.ar  290  TYR290     -0.0009
     21  CE1       42.3800   16.6080   61.8080 C.ar  290  TYR290      0.0417
     22  CE2       43.6870   17.4610   63.6350 C.ar  290  TYR290      0.0417
     23  CZ        43.4450   16.4750   62.6830 C.ar  290  TYR290      0.1957
     24  OH        44.2580   15.3530   62.6190 O.3   290  TYR290     -0.2866
     25  N         41.7830   17.0720   67.0070 N.3   292  PHE292     -0.1241
     26  CA        43.2050   16.8140   67.2490 C.3   292  PHE292      0.1605
     27  C         43.5490   15.4230   67.7900 C.2   292  PHE292      0.2264
     28  O         44.6890   15.1470   68.1630 O.2   292  PHE292     -0.2867
     29  CB        43.7980   17.9180   68.1520 C.3   292  PHE292      0.0534
     30  CG        44.1730   19.1650   67.3960 C.ar  292  PHE292     -0.0203
     31  CD1       45.2370   19.1480   66.4990 C.ar  292  PHE292     -0.0042
     32  CD2       43.3960   20.3110   67.4870 C.ar  292  PHE292     -0.0042
     33  CE1       45.5170   20.2470   65.6990 C.ar  292  PHE292     -0.0003
     34  CE2       43.6710   21.4280   66.6800 C.ar  292  PHE292     -0.0003
     35  CZ        44.7320   21.3910   65.7840 C.ar  292  PHE292     -0.0000
     36  N         39.7820   22.0260   67.4550 N.3   302  GLY302     -0.1210
     37  CA        39.9230   23.4180   67.0610 C.3   302  GLY302      0.1956
     38  C         39.0490   23.9230   65.9260 C.2   302  GLY302      0.2612
     39  O         38.5800   23.1520   65.0910 O.2   302  GLY302     -0.2717
     40  N         38.8420   25.2380   65.9010 N.am  303  MET303     -0.1965
     41  CA        38.0370   25.8880   64.8730 C.3   303  MET303      0.1736
     42  C         38.6370   27.1980   64.3460 C.2   303  MET303      0.2616
     43  O         39.3380   27.9270   65.0510 O.2   303  MET303     -0.2715
     44  CB        36.6300   26.1840   65.4010 C.3   303  MET303      0.0427
     45  CG        35.7660   26.9800   64.4230 C.3   303  MET303      0.0599
     46  SD        34.4090   27.8710   65.2160 S.3   303  MET303     -0.1393
     47  CE        35.3240   29.1980   65.9780 C.3   303  MET303      0.0692
     48  N         38.3350   27.4750   63.0840 N.am  304  VAL304     -0.1977
     49  CA        38.7540   28.6880   62.3940 C.3   304  VAL304      0.1596
     50  C         37.6220   29.0520   61.4310 C.2   304  VAL304      0.2287
     51  O         37.2370   28.2640   60.5660 O.2   304  VAL304     -0.2864
     52  CB        40.0850   28.4900   61.5920 C.3   304  VAL304      0.0276
     53  CG1       41.2460   28.3530   62.5500 C.3   304  VAL304      0.0022
     54  CG2       40.0060   27.2490   60.7040 C.3   304  VAL304      0.0022
     55  N         37.1240   37.2680   62.1680 N.3   325  ARG325     -0.1245
     56  CA        37.9470   36.0750   62.1230 C.3   325  ARG325      0.1563
     57  C         37.9130   35.5170   63.5330 C.2   325  ARG325      0.2260
     58  O         38.1860   36.2320   64.4980 O.2   325  ARG325     -0.2867
     59  CB        39.3770   36.4470   61.7000 C.3   325  ARG325      0.0307
     60  CG        40.2590   35.2900   61.2180 C.3   325  ARG325      0.0489
     61  CD        41.1470   34.7280   62.3280 C.3   325  ARG325      0.2205
     62  NE        41.9470   35.7710   62.9650 N.pl3 325  ARG325     -0.0865
     63  CZ        42.7960   36.5630   62.3160 C.cat 325  ARG325      0.5346
     64  NH1       42.9590   36.4290   61.0150 N.pl3 325  ARG325      0.1354
     65  NH2       43.4710   37.5010   62.9660 N.pl3 325  ARG325      0.1354
     66  N         39.1270   32.1830   65.9850 N.3   327  VAL327     -0.1231
     67  CA        39.9560   31.0030   66.1520 C.3   327  VAL327      0.1692
     68  C         39.8290   30.4990   67.5840 C.2   327  VAL327      0.2592
     69  O         39.9860   31.2620   68.5310 O.2   327  VAL327     -0.2718
     70  CB        41.4100   31.3170   65.8580 C.3   327  VAL327      0.0266
     71  CG1       42.2480   30.0760   66.0570 C.3   327  VAL327      0.0020
     72  CG2       41.5400   31.8180   64.4410 C.3   327  VAL327      0.0020
     73  N         39.5200   29.2210   67.7490 N.am  328  GLU328     -0.1966
     74  CA        39.3930   28.6670   69.0860 C.3   328  GLU328      0.1733
     75  C         40.0050   27.2860   69.2460 C.2   328  GLU328      0.2616
     76  O         39.8510   26.4170   68.3910 O.2   328  GLU328     -0.2715
     77  CB        37.9270   28.5970   69.5250 C.3   328  GLU328      0.0429
     78  CG        37.7720   27.8920   70.8780 C.3   328  GLU328      0.1163
     79  CD        36.3710   27.9830   71.4750 C.2   328  GLU328      0.3649
     80  OE1       35.8540   29.1120   71.6290 O.co2 328  GLU328     -0.2457
     81  OE2       35.7880   26.9270   71.8090 O.co2 328  GLU328     -0.2457
     82  N         40.7250   27.1040   70.3460 N.am  329  LEU329     -0.1977
     83  CA        41.3220   25.8210   70.6790 C.3   329  LEU329      0.1596
     84  C         40.6740   25.4400   71.9940 C.2   329  LEU329      0.2287
     85  O         40.6860   26.2170   72.9450 O.2   329  LEU329     -0.2864
     86  CB        42.8330   25.9320   70.8660 C.3   329  LEU329      0.0297
     87  CG        43.7080   25.6410   69.6420 C.3   329  LEU329      0.0022
     88  CD1       45.1830   25.7980   70.0090 C.3   329  LEU329      0.0001
     89  CD2       43.4280   24.2370   69.1420 C.3   329  LEU329      0.0001
     90  N         40.3300   33.5640   69.9730 N.3   347  HIS347     -0.1241
     91  CA        40.7040   34.8850   69.5140 C.3   347  HIS347      0.1621
     92  C         39.7500   35.3520   68.4250 C.2   347  HIS347      0.2264
     93  O         39.1970   34.5490   67.6670 O.2   347  HIS347     -0.2867
     94  CB        42.1230   34.8720   68.9600 C.3   347  HIS347      0.0745
     95  CG        42.5760   36.2030   68.4560 C.ar  347  HIS347      0.0817
     96  ND1       42.9720   37.2200   69.2970 N.ar  347  HIS347     -0.2268
     97  CD2       42.6510   36.7010   67.2000 C.ar  347  HIS347      0.1154
     98  CE1       43.2710   38.2880   68.5810 C.ar  347  HIS347      0.1986
     99  NE2       43.0840   38.0000   67.3060 N.ar  347  HIS347     -0.2212
@<TRIPOS>BOND
     1     7     9   ar
     2     7     6   ar
     3     9    11   ar
     4     5     6    1
     5     5     2    1
     6     6     8   ar
     7    11    12    1
     8    11    10   ar
     9     1     2    1
    10     2     3    1
    11     8    10   ar
    12    51    50    2
    13    54    52    1
    14     3     4    2
    15    64    63    1
    16    60    59    1
    17    60    61    1
    18    50    49    1
    19    52    49    1
    20    52    53    1
    21    59    56    1
    22    21    19   ar
    23    21    23   ar
    24    19    18   ar
    25    56    55    1
    26    56    57    1
    27    63    62    2
    28    63    65    1
    29    61    62    1
    30    49    48    1
    31    24    23    1
    32    23    22   ar
    33    18    17    1
    34    18    20   ar
    35    17    14    1
    36    48    42   am
    37    14    13    1
    38    14    15    1
    39    57    58    2
    40    22    20   ar
    41    42    41    1
    42    42    43    2
    43    45    46    1
    44    45    44    1
    45    72    70    1
    46    15    16    2
    47    41    44    1
    48    41    40    1
    49    39    38    2
    50    46    47    1
    51    33    35   ar
    52    33    31   ar
    53    35    34   ar
    54    70    71    1
    55    70    67    1
    56    40    38   am
    57    38    37    1
    58    66    67    1
    59    67    68    1
    60    31    30   ar
    61    34    32   ar
    62    25    26    1
    63    37    36    1
    64    97    99   ar
    65    97    95   ar
    66    26    27    1
    67    26    29    1
    68    99    98   ar
    69    30    32   ar
    70    30    29    1
    71    68    73   am
    72    68    69    2
    73    93    92    2
    74    73    74    1
    75    27    28    2
    76    76    75    2
    77    92    91    1
    78    95    94    1
    79    95    96   ar
    80    98    96   ar
    81    94    91    1
    82    74    75    1
    83    74    77    1
    84    89    87    1
    85    75    82   am
    86    91    90    1
    87    77    78    1
    88    87    88    1
    89    87    86    1
    90    82    83    1
    91    83    86    1
    92    83    84    1
    93    78    79    1
    94    79    80   ar
    95    79    81   ar
    96    84    85    2
