@<TRIPOS>MOLECULE
tmp/2qtkA08.pdb
 109 105 0 0 0
SMALL
GASTEIGER

@<TRIPOS>ATOM
      1  N         11.5060   19.9160   60.4140 N.3   176  LEU176     -0.1245
      2  CA        10.9210   21.1880   60.0100 C.3   176  LEU176      0.1561
      3  C         10.5410   22.0130   61.2230 C.2   176  LEU176      0.2260
      4  O         10.2730   21.4780   62.3000 O.2   176  LEU176     -0.2867
      5  CB         9.6800   20.9580   59.1580 C.3   176  LEU176      0.0270
      6  CG         9.9630   20.1780   57.8770 C.3   176  LEU176      0.0019
      7  CD1        8.6440   19.8360   57.2140 C.3   176  LEU176      0.0001
      8  CD2       10.8700   20.9960   56.9420 C.3   176  LEU176      0.0001
      9  N         10.7760   30.1210   59.5370 N.3   192  ALA192     -0.1231
     10  CA        10.5950   28.8200   58.9180 C.3   192  ALA192      0.1694
     11  C         11.9880   28.2180   58.8060 C.2   192  ALA192      0.2592
     12  O         12.8930   28.8400   58.2620 O.2   192  ALA192     -0.2718
     13  CB         9.9690   28.9790   57.5460 C.3   192  ALA192      0.0304
     14  N         12.1620   27.0120   59.3320 N.am  193  ASN193     -0.1960
     15  CA        13.4670   26.3560   59.3080 C.3   193  ASN193      0.1819
     16  C         13.3920   24.8990   58.8780 C.2   193  ASN193      0.2621
     17  O         12.4570   24.1730   59.2290 O.2   193  ASN193     -0.2715
     18  CB        14.1210   26.4650   60.7030 C.3   193  ASN193      0.1195
     19  CG        15.2740   25.4840   60.9070 C.2   193  ASN193      0.2630
     20  OD1       16.3420   25.6200   60.3090 O.2   193  ASN193     -0.2716
     21  ND2       15.0570   24.4860   61.7610 N.am  193  ASN193     -0.0877
     22  N         14.3860   24.4980   58.0920 N.am  194  LEU194     -0.1977
     23  CA        14.5190   23.1240   57.6130 C.3   194  LEU194      0.1596
     24  C         15.9390   22.6590   57.9280 C.2   194  LEU194      0.2287
     25  O         16.8930   23.4020   57.7230 O.2   194  LEU194     -0.2864
     26  CB        14.2600   23.0460   56.1020 C.3   194  LEU194      0.0297
     27  CG        14.8700   21.8780   55.3140 C.3   194  LEU194      0.0022
     28  CD1       14.5070   20.5480   55.9220 C.3   194  LEU194      0.0001
     29  CD2       14.3760   21.9410   53.8860 C.3   194  LEU194      0.0001
     30  N         18.6960   25.4230   56.6400 N.3   209  LEU209     -0.1231
     31  CA        18.0780   26.5190   55.9260 C.3   209  LEU209      0.1693
     32  C         17.0330   27.2390   56.7850 C.2   209  LEU209      0.2593
     33  O         16.0900   26.6190   57.3000 O.2   209  LEU209     -0.2718
     34  CB        17.4400   25.9780   54.6470 C.3   209  LEU209      0.0284
     35  CG        18.3730   25.4710   53.5340 C.3   209  LEU209      0.0019
     36  CD1       19.4990   24.6350   54.0990 C.3   209  LEU209      0.0001
     37  CD2       17.5620   24.6510   52.5390 C.3   209  LEU209      0.0001
     38  N         17.1980   28.5480   56.9460 N.am  210  GLY210     -0.1942
     39  CA        16.2350   29.3020   57.7300 C.3   210  GLY210      0.2014
     40  C         15.7440   30.5940   57.0840 C.2   210  GLY210      0.2638
     41  O         16.4400   31.2000   56.2640 O.2   210  GLY210     -0.2714
     42  N         14.5310   31.0060   57.4440 N.am  211  LEU211     -0.1977
     43  CA        13.9470   32.2530   56.9480 C.3   211  LEU211      0.1596
     44  C         13.1890   33.0050   58.0550 C.2   211  LEU211      0.2287
     45  O         12.3340   32.4380   58.7450 O.2   211  LEU211     -0.2864
     46  CB        12.9920   31.9970   55.7740 C.3   211  LEU211      0.0297
     47  CG        12.0680   33.1960   55.4650 C.3   211  LEU211      0.0022
     48  CD1       12.8910   34.3800   54.9560 C.3   211  LEU211      0.0001
     49  CD2       10.9980   32.7850   54.4660 C.3   211  LEU211      0.0001
     50  N         17.4420   35.5780   55.3870 N.3   230  VAL230     -0.1231
     51  CA        17.5350   34.2260   54.8560 C.3   230  VAL230      0.1692
     52  C         18.9690   33.7540   54.9990 C.2   230  VAL230      0.2592
     53  O         19.9020   34.5260   54.7860 O.2   230  VAL230     -0.2718
     54  CB        17.1780   34.1720   53.3550 C.3   230  VAL230      0.0266
     55  CG1       15.7570   34.6530   53.1390 C.3   230  VAL230      0.0020
     56  CG2       18.1470   35.0350   52.5550 C.3   230  VAL230      0.0020
     57  N         19.1490   32.4880   55.3580 N.am  231  TYR231     -0.1962
     58  CA        20.4860   31.9360   55.5130 C.3   231  TYR231      0.1771
     59  C         20.4960   30.4670   55.1550 C.2   231  TYR231      0.2620
     60  O         19.4680   29.7790   55.2190 O.2   231  TYR231     -0.2715
     61  CB        20.9820   32.1020   56.9510 C.3   231  TYR231      0.0574
     62  CG        20.2810   31.2200   57.9600 C.ar  231  TYR231     -0.0198
     63  CD1       20.6680   29.8900   58.1400 C.ar  231  TYR231     -0.0009
     64  CD2       19.1920   31.7010   58.7020 C.ar  231  TYR231     -0.0009
     65  CE1       19.9820   29.0530   59.0300 C.ar  231  TYR231      0.0417
     66  CE2       18.4980   30.8730   59.5960 C.ar  231  TYR231      0.0417
     67  CZ        18.8950   29.5480   59.7550 C.ar  231  TYR231      0.1957
     68  OH        18.2100   28.7130   60.6200 O.3   231  TYR231     -0.2866
     69  N         21.6710   29.9970   54.7710 N.am  232  GLY232     -0.1954
     70  CA        21.8330   28.6080   54.4270 C.3   232  GLY232      0.1869
     71  C         23.2130   28.2230   54.9010 C.2   232  GLY232      0.2309
     72  O         24.2050   28.6460   54.3050 O.2   232  GLY232     -0.2863
     73  N         25.8780   25.3150   55.3320 N.3   234  PHE234     -0.1241
     74  CA        26.1340   23.9640   54.8200 C.3   234  PHE234      0.1605
     75  C         27.3910   23.3460   55.4140 C.2   234  PHE234      0.2264
     76  O         28.4350   23.9890   55.4890 O.2   234  PHE234     -0.2867
     77  CB        26.2360   23.9950   53.2960 C.3   234  PHE234      0.0534
     78  CG        25.0490   24.6300   52.6400 C.ar  234  PHE234     -0.0203
     79  CD1       23.9240   23.8720   52.3230 C.ar  234  PHE234     -0.0042
     80  CD2       25.0200   26.0180   52.4190 C.ar  234  PHE234     -0.0042
     81  CE1       22.7890   24.4790   51.8000 C.ar  234  PHE234     -0.0003
     82  CE2       23.8950   26.6350   51.8990 C.ar  234  PHE234     -0.0003
     83  CZ        22.7700   25.8660   51.5880 C.ar  234  PHE234     -0.0000
     84  N         25.9470   31.2470   53.5780 N.3   247  LEU247     -0.1231
     85  CA        25.4860   32.3180   52.6960 C.3   247  LEU247      0.1693
     86  C         24.2510   32.9220   53.3440 C.2   247  LEU247      0.2592
     87  O         23.2880   32.2130   53.6230 O.2   247  LEU247     -0.2718
     88  CB        25.1410   31.7560   51.3150 C.3   247  LEU247      0.0284
     89  CG        26.2870   31.3710   50.3650 C.3   247  LEU247      0.0019
     90  CD1       27.2260   30.3470   50.9800 C.3   247  LEU247      0.0001
     91  CD2       25.6730   30.8050   49.1100 C.3   247  LEU247      0.0001
     92  N         24.2790   34.2340   53.5660 N.am  248  GLN248     -0.1966
     93  CA        23.1830   34.9280   54.2400 C.3   248  GLN248      0.1733
     94  C         22.8810   36.3020   53.6610 C.2   248  GLN248      0.2616
     95  O         23.7820   37.0100   53.2230 O.2   248  GLN248     -0.2715
     96  CB        23.5420   35.0760   55.7130 C.3   248  GLN248      0.0408
     97  CG        22.4710   35.6010   56.6130 C.3   248  GLN248      0.0908
     98  CD        22.9470   35.6060   58.0550 C.2   248  GLN248      0.2608
     99  OE1       23.2610   36.6600   58.6220 O.2   248  GLN248     -0.2717
    100  NE2       23.0280   34.4160   58.6520 N.am  248  GLN248     -0.0878
    101  N         21.6070   36.6810   53.6970 N.am  249  LYS249     -0.1977
    102  CA        21.1530   37.9670   53.1730 C.3   249  LYS249      0.1596
    103  C         19.9930   38.5630   53.9780 C.2   249  LYS249      0.2287
    104  O         19.0070   37.8740   54.2660 O.2   249  LYS249     -0.2864
    105  CB        20.7180   37.7950   51.7190 C.3   249  LYS249      0.0298
    106  CG        19.8950   38.9420   51.1540 C.3   249  LYS249      0.0038
    107  CD        20.7040   40.2120   50.9850 C.3   249  LYS249      0.0206
    108  CE        19.8170   41.3130   50.4180 C.3   249  LYS249      0.1093
    109  NZ        20.5820   42.5630   50.1920 N.3   249  LYS249     -0.1314
@<TRIPOS>BOND
     1    91    89    1
     2   109   108    1
     3    89    90    1
     4    89    88    1
     5   108   107    1
     6   107   106    1
     7   106   105    1
     8    88    85    1
     9    83    81   ar
    10    83    82   ar
    11   105   102    1
    12    81    79   ar
    13    82    80   ar
    14    79    78   ar
    15    80    78   ar
    16    37    35    1
    17    56    54    1
    18    78    77    1
    19    85    86    1
    20    85    84    1
    21    55    54    1
    22   102   101    1
    23   102   103    1
    24    95    94    2
    25    77    74    1
    26    86    92   am
    27    86    87    2
    28    54    51    1
    29    35    36    1
    30    35    34    1
    31    92    93    1
    32    94   101   am
    33    94    93    1
    34    29    27    1
    35   103   104    2
    36    93    96    1
    37    72    71    2
    38    70    69    1
    39    70    71    1
    40    49    47    1
    41    34    31    1
    42    69    59   am
    43    53    52    2
    44    74    73    1
    45    74    75    1
    46    51    52    1
    47    51    50    1
    48    48    47    1
    49    52    57   am
    50    59    60    2
    51    59    58    1
    52    27    28    1
    53    27    26    1
    54    57    58    1
    55    75    76    2
    56    47    46    1
    57    58    61    1
    58    96    97    1
    59    46    43    1
    60    31    30    1
    61    31    32    1
    62    26    23    1
    63    41    40    2
    64    97    98    1
    65    32    38   am
    66    32    33    2
    67     8     6    1
    68    38    39    1
    69    43    42    1
    70    43    44    1
    71    61    62    1
    72    40    42   am
    73    40    39    1
    74     7     6    1
    75    13    10    1
    76    23    24    1
    77    23    22    1
    78    25    24    2
    79     6     5    1
    80    62    63   ar
    81    62    64   ar
    82    44    45    2
    83    98    99    2
    84    98   100   am
    85    22    16   am
    86    63    65   ar
    87    12    11    2
    88    64    66   ar
    89    11    10    1
    90    11    14   am
    91    16    17    2
    92    16    15    1
    93    10     9    1
    94    65    67   ar
    95     5     2    1
    96    15    14    1
    97    15    18    1
    98    66    67   ar
    99    67    68    1
   100     2     1    1
   101     2     3    1
   102    20    19    2
   103    18    19    1
   104    19    21   am
   105     3     4    2
