@<TRIPOS>MOLECULE
tmp/2qtkB05.pdb
 75 69 0 0 0
SMALL
GASTEIGER

@<TRIPOS>ATOM
      1  N          1.2400   64.1120   83.2080 N.3    81  VAL81      -0.1245
      2  CA         0.1370   63.1770   83.0370 C.3    81  VAL81       0.1561
      3  C          0.1970   62.5010   81.6680 C.2    81  VAL81       0.2260
      4  O         -0.1440   63.0990   80.6440 O.2    81  VAL81      -0.2867
      5  CB        -1.2430   63.8700   83.2160 C.3    81  VAL81       0.0252
      6  CG1       -1.3290   65.1160   82.3630 C.3    81  VAL81       0.0019
      7  CG2       -2.3510   62.9070   82.8390 C.3    81  VAL81       0.0019
      8  N          2.5160   64.2410   78.5770 N.3    84  SER84      -0.1202
      9  CA         2.3920   65.6960   78.6340 C.3    84  SER84       0.2020
     10  C          3.0620   66.1520   79.9110 C.2    84  SER84       0.2619
     11  O          3.1600   65.3860   80.8710 O.2    84  SER84      -0.2717
     12  CB         0.9290   66.1220   78.6280 C.3    84  SER84       0.2103
     13  OG         0.3450   65.8730   77.3610 O.3    84  SER84      -0.2182
     14  N          3.5330   67.3940   79.9180 N.am   85  GLU85      -0.1965
     15  CA         4.2270   67.9430   81.0780 C.3    85  GLU85       0.1733
     16  C          4.0400   69.4450   81.1990 C.2    85  GLU85       0.2616
     17  O          4.0860   70.1680   80.2130 O.2    85  GLU85      -0.2715
     18  CB         5.7280   67.6470   80.9880 C.3    85  GLU85       0.0429
     19  CG         6.5280   68.1970   82.1680 C.3    85  GLU85       0.1163
     20  CD         8.0010   68.4400   81.8470 C.2    85  GLU85       0.3649
     21  OE1        8.2960   69.2890   80.9710 O.co2  85  GLU85      -0.2457
     22  OE2        8.8610   67.7830   82.4750 O.co2  85  GLU85      -0.2457
     23  N          3.8370   69.9090   82.4220 N.am   86  LEU86      -0.1977
     24  CA         3.6730   71.3270   82.6660 C.3    86  LEU86       0.1596
     25  C          4.6700   71.7420   83.7410 C.2    86  LEU86       0.2287
     26  O          4.8050   71.0710   84.7720 O.2    86  LEU86      -0.2864
     27  CB         2.2480   71.6310   83.1510 C.3    86  LEU86       0.0297
     28  CG         1.6940   73.0680   83.1400 C.3    86  LEU86       0.0022
     29  CD1        0.4710   73.1240   84.0480 C.3    86  LEU86       0.0001
     30  CD2        2.7240   74.0680   83.6270 C.3    86  LEU86       0.0001
     31  N          5.9980   75.2340   85.9550 N.3    88  ILE88      -0.1245
     32  CA         5.6200   76.5760   86.3490 C.3    88  ILE88       0.1561
     33  C          6.7570   77.1210   87.1790 C.2    88  ILE88       0.2260
     34  O          7.2270   76.4550   88.0960 O.2    88  ILE88      -0.2867
     35  CB         4.3400   76.5590   87.1900 C.3    88  ILE88       0.0252
     36  CG1        3.2190   75.8920   86.3920 C.3    88  ILE88       0.0019
     37  CG2        3.9580   77.9690   87.5830 C.3    88  ILE88       0.0019
     38  CD1        1.8820   75.8710   87.0900 C.3    88  ILE88       0.0001
     39  N          7.7730   81.8540   84.0400 N.3   112  GLY112     -0.1210
     40  CA         6.4280   81.6890   83.5190 C.3   112  GLY112      0.1956
     41  C          6.0710   80.2150   83.4840 C.2   112  GLY112      0.2611
     42  O          6.4460   79.4670   84.3900 O.2   112  GLY112     -0.2717
     43  N          5.3560   79.7830   82.4490 N.am  113  PHE113     -0.1976
     44  CA         4.9760   78.3720   82.3380 C.3   113  PHE113      0.1639
     45  C          5.0540   77.8630   80.9020 C.2   113  PHE113      0.2290
     46  O          4.9900   78.6390   79.9460 O.2   113  PHE113     -0.2864
     47  CB         3.5560   78.1470   82.8470 C.3   113  PHE113      0.0560
     48  CG         2.5020   78.5930   81.8850 C.ar  113  PHE113     -0.0200
     49  CD1        2.1220   79.9270   81.8150 C.ar  113  PHE113     -0.0042
     50  CD2        1.9100   77.6840   81.0180 C.ar  113  PHE113     -0.0042
     51  CE1        1.1600   80.3500   80.8910 C.ar  113  PHE113     -0.0003
     52  CE2        0.9540   78.0960   80.0970 C.ar  113  PHE113     -0.0003
     53  CZ         0.5780   79.4330   80.0330 C.ar  113  PHE113     -0.0000
     54  N          4.2230   73.9750   78.3880 N.3   115  VAL115     -0.1245
     55  CA         3.6390   72.6480   78.3630 C.3   115  VAL115      0.1561
     56  C          4.1760   71.8800   77.1850 C.2   115  VAL115      0.2260
     57  O          4.1180   72.3520   76.0590 O.2   115  VAL115     -0.2867
     58  CB         2.1130   72.6820   78.2340 C.3   115  VAL115      0.0252
     59  CG1        1.5670   71.2680   78.3770 C.3   115  VAL115      0.0019
     60  CG2        1.5110   73.5950   79.2840 C.3   115  VAL115      0.0019
     61  N          3.8800   68.3420   75.1050 N.3   117  SER117     -0.1217
     62  CA         3.0110   67.1850   74.9110 C.3   117  SER117      0.1889
     63  C          3.4720   66.2440   73.8010 C.2   117  SER117      0.2288
     64  O          3.6640   66.6660   72.6650 O.2   117  SER117     -0.2866
     65  CB         1.5880   67.6580   74.6180 C.3   117  SER117      0.2089
     66  OG         0.7230   66.5510   74.4810 O.3   117  SER117     -0.2183
     67  N          1.8610   62.9730   73.2360 N.3   119  GLU119     -0.1245
     68  CA         0.9460   61.8400   73.2150 C.3   119  GLU119      0.1567
     69  C          1.1280   61.0580   71.9100 C.2   119  GLU119      0.2260
     70  O          1.8440   60.0550   71.8900 O.2   119  GLU119     -0.2867
     71  CB        -0.5050   62.3140   73.3850 C.3   119  GLU119      0.0388
     72  CG        -0.7580   63.0470   74.7210 C.3   119  GLU119      0.1160
     73  CD        -0.3850   62.2260   75.9670 C.2   119  GLU119      0.3649
     74  OE1       -0.3790   62.7980   77.0760 O.co2 119  GLU119     -0.2457
     75  OE2       -0.1040   61.0130   75.8510 O.co2 119  GLU119     -0.2457
@<TRIPOS>BOND
     1    70    69    2
     2    69    68    1
     3    64    63    2
     4    68    67    1
     5    68    71    1
     6    71    72    1
     7    63    62    1
     8    66    65    1
     9    65    62    1
    10    72    73    1
    11    62    61    1
    12    75    73   ar
    13    73    74   ar
    14    57    56    2
    15    56    55    1
    16    13    12    1
    17    58    55    1
    18    58    59    1
    19    58    60    1
    20    55    54    1
    21     8     9    1
    22    12     9    1
    23     9    10    1
    24    10    14   am
    25    10    11    2
    26    14    15    1
    27    46    45    2
    28    53    52   ar
    29    53    51   ar
    30    52    50   ar
    31    17    16    2
    32     4     3    2
    33    51    49   ar
    34    45    44    1
    35    21    20   ar
    36    18    15    1
    37    18    19    1
    38    50    48   ar
    39    15    16    1
    40    16    23   am
    41     3     2    1
    42    49    48   ar
    43    20    19    1
    44    20    22   ar
    45    48    47    1
    46    44    43    1
    47    44    47    1
    48     6     5    1
    49    23    24    1
    50    43    41   am
    51    24    27    1
    52    24    25    1
    53     7     5    1
    54     2     1    1
    55     2     5    1
    56    28    27    1
    57    28    30    1
    58    28    29    1
    59    41    40    1
    60    41    42    2
    61    40    39    1
    62    25    26    2
    63    31    32    1
    64    32    33    1
    65    32    35    1
    66    36    38    1
    67    36    35    1
    68    33    34    2
    69    35    37    1
