@<TRIPOS>MOLECULE
tmp/2qtlA00.pdb
 189 182 0 0 0
SMALL
GASTEIGER

@<TRIPOS>ATOM
      1  N         25.1080   42.8460   39.2730 N.3    82  ALA82      -0.1245
      2  CA        24.9810   41.8850   40.3630 C.3    82  ALA82       0.1562
      3  C         23.9720   42.4470   41.3820 C.2    82  ALA82       0.2260
      4  O         23.7190   43.6550   41.4220 O.2    82  ALA82      -0.2867
      5  CB        26.3400   41.6400   41.0550 C.3    82  ALA82       0.0290
      6  N         29.0650   29.9140   60.5510 N.3   145  ARG145     -0.1245
      7  CA        30.0200   29.0960   59.7990 C.3   145  ARG145      0.1563
      8  C         31.4910   29.5740   59.8490 C.2   145  ARG145      0.2260
      9  O         32.4020   28.8540   59.4040 O.2   145  ARG145     -0.2867
     10  CB        29.5620   29.0250   58.3330 C.3   145  ARG145      0.0307
     11  CG        28.3050   28.1540   58.1440 C.3   145  ARG145      0.0489
     12  CD        28.6820   26.6830   58.0800 C.3   145  ARG145      0.2205
     13  NE        27.5640   25.8420   57.6430 N.pl3 145  ARG145     -0.0865
     14  CZ        27.2650   25.5770   56.3780 C.cat 145  ARG145      0.5346
     15  NH1       28.0160   26.0420   55.3800 N.pl3 145  ARG145      0.1354
     16  NH2       26.2370   24.7900   56.1160 N.pl3 145  ARG145      0.1354
     17  N         35.2480   30.4530   60.3270 N.3   147  ILE147     -0.1245
     18  CA        36.3490   29.7220   60.9630 C.3   147  ILE147      0.1561
     19  C         36.8450   30.5800   62.1490 C.2   147  ILE147      0.2260
     20  O         37.2010   31.7270   61.9620 O.2   147  ILE147     -0.2867
     21  CB        37.4490   29.4450   59.9220 C.3   147  ILE147      0.0252
     22  CG1       36.8620   28.5860   58.7880 C.3   147  ILE147      0.0019
     23  CG2       38.6760   28.7840   60.5690 C.3   147  ILE147      0.0019
     24  CD1       37.6080   28.7240   57.4480 C.3   147  ILE147      0.0001
     25  N         24.9470   37.2990   49.9250 N.3   218  ARG218     -0.1231
     26  CA        25.7500   36.7410   48.8170 C.3   218  ARG218      0.1679
     27  C         25.2830   37.3920   47.5050 C.2   218  ARG218      0.2434
     28  O         24.1020   37.4220   47.2340 O.2   218  ARG218     -0.2733
     29  CB        25.6300   35.1890   48.7290 C.3   218  ARG218      0.0321
     30  CG        26.6590   34.3930   49.6010 C.3   218  ARG218      0.0489
     31  CD        26.4370   34.6110   51.1180 C.3   218  ARG218      0.2205
     32  NE        27.1190   33.5240   51.8470 N.pl3 218  ARG218     -0.0865
     33  CZ        27.4110   33.5320   53.1370 C.cat 218  ARG218      0.5346
     34  NH1       27.0890   34.5870   53.8880 N.pl3 218  ARG218      0.1354
     35  NH2       28.0240   32.4670   53.6690 N.pl3 218  ARG218      0.1354
     36  N         26.2180   37.9450   46.7180 N.am  219  PRO219     -0.2718
     37  CA        25.8950   38.4910   45.3970 C.3   219  PRO219      0.1535
     38  C         25.7850   37.4280   44.3310 C.2   219  PRO219      0.2599
     39  O         26.5060   36.3970   44.3710 O.2   219  PRO219     -0.2715
     40  CB        27.0930   39.4140   45.0780 C.3   219  PRO219      0.0310
     41  CG        28.2690   38.7560   45.7870 C.3   219  PRO219      0.0237
     42  CD        27.6310   38.1780   47.0790 C.3   219  PRO219      0.0939
     43  N         24.8480   37.6650   43.4280 N.am  220  TYR220     -0.1960
     44  CA        24.6850   36.8580   42.2060 C.3   220  TYR220      0.1771
     45  C         24.6310   37.7660   40.9920 C.2   220  TYR220      0.2620
     46  O         24.2000   38.9420   41.0930 O.2   220  TYR220     -0.2715
     47  CB        23.4650   35.9100   42.2910 C.3   220  TYR220      0.0574
     48  CG        23.7300   34.9060   43.3970 C.ar  220  TYR220     -0.0198
     49  CD1       24.4820   33.7570   43.1460 C.ar  220  TYR220     -0.0009
     50  CD2       23.3590   35.2010   44.7090 C.ar  220  TYR220     -0.0009
     51  CE1       24.8040   32.8830   44.1730 C.ar  220  TYR220      0.0417
     52  CE2       23.7160   34.3620   45.7560 C.ar  220  TYR220      0.0417
     53  CZ        24.4260   33.2050   45.4720 C.ar  220  TYR220      0.1957
     54  OH        24.7850   32.4120   46.5030 O.3   220  TYR220     -0.2866
     55  N         25.0270   37.2230   39.8340 N.am  221  SER221     -0.1950
     56  CA        24.9770   38.0030   38.5750 C.3   221  SER221      0.1924
     57  C         23.6640   37.8920   37.8540 C.2   221  SER221      0.2314
     58  O         23.0550   36.8140   37.8350 O.2   221  SER221     -0.2863
     59  CB        26.1390   37.5960   37.6330 C.3   221  SER221      0.2116
     60  OG        27.3510   37.6640   38.3850 O.3   221  SER221     -0.2180
     61  N         21.9930   32.2180   38.0630 N.3   236  VAL236     -0.1231
     62  CA        22.4710   30.8340   37.8970 C.3   236  VAL236      0.1692
     63  C         23.5330   30.5910   38.9450 C.2   236  VAL236      0.2592
     64  O         24.4360   31.4200   39.1060 O.2   236  VAL236     -0.2718
     65  CB        23.1500   30.6510   36.5040 C.3   236  VAL236      0.0266
     66  CG1       23.7040   29.2290   36.3480 C.3   236  VAL236      0.0020
     67  CG2       22.1550   30.9290   35.3900 C.3   236  VAL236      0.0020
     68  N         23.4830   29.4420   39.6170 N.am  237  PHE237     -0.1962
     69  CA        24.5020   29.1610   40.6400 C.3   237  PHE237      0.1771
     70  C         24.7490   27.6720   40.7870 C.2   237  PHE237      0.2619
     71  O         23.8220   26.8660   40.5820 O.2   237  PHE237     -0.2715
     72  CB        24.0990   29.7620   42.0080 C.3   237  PHE237      0.0574
     73  CG        22.8030   29.2650   42.5370 C.ar  237  PHE237     -0.0200
     74  CD1       22.7470   28.1030   43.3470 C.ar  237  PHE237     -0.0042
     75  CD2       21.6420   29.9120   42.2030 C.ar  237  PHE237     -0.0042
     76  CE1       21.5210   27.6520   43.8670 C.ar  237  PHE237     -0.0003
     77  CE2       20.4240   29.4720   42.6710 C.ar  237  PHE237     -0.0003
     78  CZ        20.3360   28.3510   43.5080 C.ar  237  PHE237     -0.0000
     79  N         26.0060   27.3090   41.0720 N.am  238  ASN238     -0.1972
     80  CA        26.2730   25.9310   41.4730 C.3   238  ASN238      0.1688
     81  C         26.0030   25.8380   42.9640 C.2   238  ASN238      0.2292
     82  O         26.3090   26.7800   43.6980 O.2   238  ASN238     -0.2864
     83  CB        27.7830   25.6330   41.3080 C.3   238  ASN238      0.1181
     84  CG        28.1810   25.3110   39.8700 C.2   238  ASN238      0.2629
     85  OD1       27.4270   24.6750   39.1430 O.2   238  ASN238     -0.2716
     86  ND2       29.3890   25.7300   39.4730 N.am  238  ASN238     -0.0877
     87  N         27.1570   24.9490   46.3000 N.3   240  VAL240     -0.1245
     88  CA        28.5010   24.6880   46.8280 C.3   240  VAL240      0.1561
     89  C         28.4250   23.5400   47.8420 C.2   240  VAL240      0.2260
     90  O         27.5050   23.4810   48.6840 O.2   240  VAL240     -0.2867
     91  CB        29.1170   25.9480   47.4850 C.3   240  VAL240      0.0252
     92  CG1       30.3890   25.6190   48.3160 C.3   240  VAL240      0.0019
     93  CG2       29.3560   27.0230   46.4410 C.3   240  VAL240      0.0019
     94  N         31.2830   21.1730   50.2450 N.3   242  PHE242     -0.1241
     95  CA        32.6850   21.0850   50.6240 C.3   242  PHE242      0.1605
     96  C         32.8260   20.0980   51.8050 C.2   242  PHE242      0.2264
     97  O         31.8480   19.8160   52.4940 O.2   242  PHE242     -0.2867
     98  CB        33.2250   22.4840   50.9890 C.3   242  PHE242      0.0534
     99  CG        32.5030   23.1340   52.1760 C.ar  242  PHE242     -0.0203
    100  CD1       33.0570   23.0780   53.4600 C.ar  242  PHE242     -0.0042
    101  CD2       31.2640   23.7840   52.0070 C.ar  242  PHE242     -0.0042
    102  CE1       32.3990   23.6460   54.5620 C.ar  242  PHE242     -0.0003
    103  CE2       30.6030   24.3490   53.1010 C.ar  242  PHE242     -0.0003
    104  CZ        31.1660   24.3060   54.3590 C.ar  242  PHE242     -0.0000
    105  N         26.9690   25.1240   50.9520 N.3   254  GLY254     -0.1210
    106  CA        27.1670   26.5380   51.1850 C.3   254  GLY254      0.1956
    107  C         25.9480   27.0860   51.9070 C.2   254  GLY254      0.2612
    108  O         24.8570   26.5200   51.8010 O.2   254  GLY254     -0.2717
    109  N         26.1030   28.2090   52.6150 N.am  255  VAL255     -0.1965
    110  CA        24.9680   28.7760   53.3570 C.3   255  VAL255      0.1727
    111  C         23.8670   29.2380   52.3750 C.2   255  VAL255      0.2616
    112  O         22.6880   28.9080   52.5460 O.2   255  VAL255     -0.2715
    113  CB        25.4270   29.9600   54.2290 C.3   255  VAL255      0.0290
    114  CG1       24.2310   30.6630   54.9130 C.3   255  VAL255      0.0023
    115  CG2       26.4610   29.4730   55.2310 C.3   255  VAL255      0.0023
    116  N         24.2360   30.0380   51.3730 N.am  256  CYS256     -0.1954
    117  CA        23.2020   30.6860   50.5680 C.3   256  CYS256      0.1843
    118  C         22.7130   29.6750   49.5520 C.2   256  CYS256      0.2626
    119  O         21.5310   29.5310   49.3580 O.2   256  CYS256     -0.2714
    120  CB        23.7460   31.9540   49.8590 C.3   256  CYS256      0.0997
    121  SG        22.4410   32.8890   49.0920 S.3   256  CYS256     -0.0797
    122  N         23.6330   28.9740   48.8800 N.am  257  THR257     -0.1950
    123  CA        23.1870   28.0270   47.8440 C.3   257  THR257      0.1897
    124  C         22.4630   26.7960   48.4160 C.2   257  THR257      0.2313
    125  O         21.5640   26.2770   47.7680 O.2   257  THR257     -0.2863
    126  CB        24.3580   27.6290   46.8650 C.3   257  THR257      0.1794
    127  OG1       25.4370   27.0720   47.6060 O.3   257  THR257     -0.2208
    128  CG2       24.9120   28.9080   46.1650 C.3   257  THR257      0.0378
    129  N         23.2240   46.2880   43.7980 N.3   278  ARG278     -0.1245
    130  CA        24.5400   46.8160   44.0150 C.3   278  ARG278      0.1563
    131  C         24.5300   48.1720   43.3050 C.2   278  ARG278      0.2260
    132  O         24.0580   48.2840   42.1580 O.2   278  ARG278     -0.2867
    133  CB        25.5870   45.8570   43.4430 C.3   278  ARG278      0.0307
    134  CG        26.9990   46.3920   43.5340 C.3   278  ARG278      0.0489
    135  CD        28.0020   45.3180   43.1620 C.3   278  ARG278      0.2205
    136  NE        28.0520   45.1220   41.7190 N.pl3 278  ARG278     -0.0865
    137  CZ        28.8770   44.2830   41.1080 C.cat 278  ARG278      0.5346
    138  NH1       29.7380   43.5470   41.8120 N.pl3 278  ARG278      0.1354
    139  NH2       28.8490   44.1960   39.7870 N.pl3 278  ARG278      0.1354
    140  N         29.5870   28.1900   35.3220 N.3   300  THR300     -0.1218
    141  CA        28.5350   29.1640   35.6310 C.3   300  THR300      0.1862
    142  C         28.9320   30.6120   35.3010 C.2   300  THR300      0.2287
    143  O         28.0570   31.4890   35.2760 O.2   300  THR300     -0.2866
    144  CB        28.0790   29.0590   37.0810 C.3   300  THR300      0.1770
    145  OG1       29.2180   29.1540   37.9230 O.3   300  THR300     -0.2211
    146  CG2       27.4270   27.7160   37.3420 C.3   300  THR300      0.0375
    147  N         26.8980   32.8920   32.9680 N.3   303  ALA303     -0.1245
    148  CA        25.6630   33.5510   33.4320 C.3   303  ALA303      0.1562
    149  C         25.4070   34.9750   32.9030 C.2   303  ALA303      0.2260
    150  O         24.3740   35.2110   32.2710 O.2   303  ALA303     -0.2867
    151  CB        25.6180   33.5530   34.9620 C.3   303  ALA303      0.0290
    152  N         34.1180   31.6030   38.5460 N.3   399  ASP399     -0.1239
    153  CA        34.4700   31.5060   39.9540 C.3   399  ASP399      0.1674
    154  C         35.9770   31.4850   40.1970 C.2   399  ASP399      0.2266
    155  O         36.4540   32.0990   41.1720 O.2   399  ASP399     -0.2867
    156  CB        33.7070   30.3860   40.6810 C.3   399  ASP399      0.1410
    157  CG        33.8500   29.0380   40.0160 C.2   399  ASP399      0.3668
    158  OD1       34.7320   28.8670   39.1430 O.co2 399  ASP399     -0.2456
    159  OD2       33.0820   28.1360   40.3890 O.co2 399  ASP399     -0.2456
    160  N         34.6570   39.7770   36.0100 N.3   442  ASP442     -0.1225
    161  CA        33.7040   39.5610   37.0760 C.3   442  ASP442      0.1805
    162  C         34.0540   38.1920   37.6620 C.2   442  ASP442      0.2598
    163  O         33.5600   37.1660   37.2370 O.2   442  ASP442     -0.2718
    164  CB        32.2760   39.6180   36.5620 C.3   442  ASP442      0.1424
    165  CG        31.2180   39.4910   37.6720 C.2   442  ASP442      0.3668
    166  OD1       31.4820   39.8380   38.8360 O.co2 442  ASP442     -0.2456
    167  OD2       30.1010   39.0480   37.3750 O.co2 442  ASP442     -0.2456
    168  N         34.9580   38.2020   38.6260 N.am  443  ILE443     -0.1966
    169  CA        35.5090   36.9880   39.2190 C.3   443  ILE443      0.1727
    170  C         34.8150   36.7620   40.5610 C.2   443  ILE443      0.2616
    171  O         34.6020   37.7150   41.3310 O.2   443  ILE443     -0.2715
    172  CB        37.0470   37.1300   39.3950 C.3   443  ILE443      0.0290
    173  CG1       37.6970   37.5010   38.0530 C.3   443  ILE443      0.0022
    174  CG2       37.7060   35.8530   39.9800 C.3   443  ILE443      0.0023
    175  CD1       37.2600   36.5840   36.8340 C.3   443  ILE443      0.0001
    176  N         34.4670   35.5130   40.8460 N.am  444  TRP444     -0.1974
    177  CA        33.4720   35.2280   41.8960 C.3   444  TRP444      0.1640
    178  C         34.0390   34.5830   43.1180 C.2   444  TRP444      0.2290
    179  O         33.2970   34.3660   44.0830 O.2   444  TRP444     -0.2864
    180  CB        32.3290   34.3690   41.3490 C.3   444  TRP444      0.0576
    181  CG        31.4880   35.0900   40.3380 C.ar  444  TRP444      0.0006
    182  CD1       31.5000   36.4150   40.0840 C.ar  444  TRP444      0.0946
    183  CD2       30.5130   34.5180   39.4400 C.ar  444  TRP444      0.0152
    184  NE1       30.5850   36.7260   39.1100 N.ar  444  TRP444     -0.2442
    185  CE2       29.9720   35.5780   38.6880 C.ar  444  TRP444      0.0810
    186  CE3       30.0200   33.2350   39.2400 C.ar  444  TRP444      0.0012
    187  CZ2       28.9580   35.3880   37.7370 C.ar  444  TRP444      0.0191
    188  CZ3       29.0400   33.0440   38.2780 C.ar  444  TRP444      0.0001
    189  CH2       28.5130   34.1110   37.5410 C.ar  444  TRP444      0.0015
@<TRIPOS>BOND
     1   150   149    2
     2   149   148    1
     3   147   148    1
     4   148   151    1
     5   143   142    2
     6   142   141    1
     7   140   141    1
     8    67    65    1
     9   141   144    1
    10   160   161    1
    11    66    65    1
    12    65    62    1
    13   164   161    1
    14   164   165    1
    15   175   173    1
    16   161   162    1
    17   144   146    1
    18   144   145    1
    19   163   162    2
    20   167   165   ar
    21   189   187   ar
    22   189   188   ar
    23    59    60    1
    24    59    56    1
    25   162   168   am
    26   165   166   ar
    27   187   185   ar
    28    58    57    2
    29    57    56    1
    30    62    61    1
    31    62    63    1
    32   173   172    1
    33   188   186   ar
    34   152   153    1
    35    56    55    1
    36   168   169    1
    37   185   184   ar
    38   185   183   ar
    39    63    64    2
    40    63    68   am
    41   184   182   ar
    42    85    84    2
    43   158   157   ar
    44   169   172    1
    45   169   170    1
    46   186   183   ar
    47     1     2    1
    48   172   174    1
    49   183   181   ar
    50    86    84   am
    51    68    69    1
    52   139   137    1
    53    55    45   am
    54    84    83    1
    55   153   154    1
    56   153   156    1
    57   157   159   ar
    58   157   156    1
    59   182   181   ar
    60   154   155    2
    61   181   180    1
    62     2     5    1
    63     2     3    1
    64   170   176   am
    65   170   171    2
    66    71    70    2
    67    69    70    1
    68    69    72    1
    69    70    79   am
    70   176   177    1
    71    45    46    2
    72    45    44    1
    73    79    80    1
    74   137   136    2
    75   137   138    1
    76    83    80    1
    77   180   177    1
    78     3     4    2
    79    80    81    1
    80   136   135    1
    81   177   178    1
    82    72    73    1
    83   132   131    2
    84    75    73   ar
    85    75    77   ar
    86    44    47    1
    87    44    43    1
    88    47    48    1
    89    73    74   ar
    90    77    78   ar
    91    81    82    2
    92   178   179    2
    93    49    48   ar
    94    49    51   ar
    95   135   134    1
    96   131   130    1
    97    74    76   ar
    98    48    50   ar
    99    43    38   am
   100   133   134    1
   101   133   130    1
   102    78    76   ar
   103   129   130    1
   104    51    53   ar
   105    38    39    2
   106    38    37    1
   107    50    52   ar
   108    40    37    1
   109    40    41    1
   110    37    36    1
   111    53    52   ar
   112    53    54    1
   113    41    42    1
   114   128   126    1
   115    87    88    1
   116    93    91    1
   117    36    42    1
   118    36    27   am
   119    88    91    1
   120    88    89    1
   121   126   127    1
   122   126   123    1
   123    28    27    2
   124    91    92    1
   125    27    26    1
   126   125   124    2
   127    89    90    2
   128   123   124    1
   129   123   122    1
   130    29    26    1
   131    29    30    1
   132    26    25    1
   133   122   118   am
   134   121   120    1
   135   119   118    2
   136   118   117    1
   137    30    31    1
   138   120   117    1
   139    94    95    1
   140   117   116    1
   141    95    98    1
   142    95    96    1
   143   105   106    1
   144    98    99    1
   145    31    32    1
   146   106   107    1
   147   116   111   am
   148   108   107    2
   149    96    97    2
   150    32    33    2
   151   107   109   am
   152   101    99   ar
   153   101   103   ar
   154    99   100   ar
   155   111   112    2
   156   111   110    1
   157   109   110    1
   158   103   104   ar
   159    33    35    1
   160    33    34    1
   161   110   113    1
   162   100   102   ar
   163   113   114    1
   164   113   115    1
   165   104   102   ar
   166    15    14    1
   167    16    14    1
   168    14    13    2
   169    24    22    1
   170    13    12    1
   171    12    11    1
   172    11    10    1
   173    10     7    1
   174    22    21    1
   175     9     8    2
   176     7     8    1
   177     7     6    1
   178    21    23    1
   179    21    18    1
   180    17    18    1
   181    18    19    1
   182    20    19    2
