@<TRIPOS>MOLECULE
tmp/2qtnB00.pdb
 147 143 0 0 0
SMALL
GASTEIGER

@<TRIPOS>ATOM
      1  N         19.1970  -24.3810   15.5370 N.3     8  GLY8       -0.1210
      2  CA        19.1380  -24.2790   16.9760 C.3     8  GLY8        0.1956
      3  C         19.5910  -25.5550   17.6340 C.2     8  GLY8        0.2612
      4  O         19.6650  -26.5840   16.9820 O.2     8  GLY8       -0.2717
      5  N         19.8730  -25.4860   18.9300 N.am    9  GLY9       -0.1942
      6  CA        20.3360  -26.6410   19.6800 C.3     9  GLY9        0.2014
      7  C         20.9900  -26.1770   20.9700 C.2     9  GLY9        0.2639
      8  O         21.0740  -24.9740   21.2300 O.2     9  GLY9       -0.2714
      9  N         21.4100  -27.1170   21.8100 N.am   10  THR10      -0.1950
     10  CA        22.0880  -26.7730   23.0530 C.3    10  THR10       0.1897
     11  C         23.5480  -26.3340   22.7830 C.2    10  THR10       0.2313
     12  O         24.0980  -25.4940   23.4910 O.2    10  THR10      -0.2863
     13  CB        22.1510  -27.9740   24.0370 C.3    10  THR10       0.1794
     14  OG1       22.9330  -29.0340   23.4550 O.3    10  THR10      -0.2208
     15  CG2       20.7400  -28.4940   24.3750 C.3    10  THR10       0.0378
     16  N         21.6590  -20.6530   17.0160 N.3    37  LEU37      -0.1245
     17  CA        20.7990  -20.2250   18.1000 C.3    37  LEU37       0.1561
     18  C         20.8020  -21.1650   19.2980 C.2    37  LEU37       0.2260
     19  O         20.1260  -22.1770   19.2890 O.2    37  LEU37      -0.2867
     20  CB        19.3810  -20.0870   17.5390 C.3    37  LEU37       0.0270
     21  CG        18.1910  -19.6930   18.4060 C.3    37  LEU37       0.0019
     22  CD1       17.9850  -18.1880   18.3020 C.3    37  LEU37       0.0001
     23  CD2       16.9210  -20.4290   17.8930 C.3    37  LEU37       0.0001
     24  N         19.7350  -22.6340   22.8390 N.3    39  ASN39      -0.1240
     25  CA        18.5190  -22.4430   23.5990 C.3    39  ASN39       0.1653
     26  C         18.8450  -22.2450   25.0660 C.2    39  ASN39       0.2266
     27  O         19.9550  -22.5400   25.5100 O.2    39  ASN39      -0.2867
     28  CB        17.5230  -23.5890   23.4070 C.3    39  ASN39       0.1155
     29  CG        18.1820  -24.9550   23.3460 C.2    39  ASN39       0.2627
     30  OD1       17.8660  -25.7560   22.4670 O.2    39  ASN39      -0.2716
     31  ND2       19.0800  -25.2350   24.2780 N.am   39  ASN39      -0.0877
     32  N         17.2940  -16.5680   22.2500 N.3    76  GLU76      -0.1245
     33  CA        16.7140  -17.4330   23.2640 C.3    76  GLU76       0.1567
     34  C         17.3980  -17.3060   24.6120 C.2    76  GLU76       0.2260
     35  O         16.7940  -17.5260   25.6490 O.2    76  GLU76      -0.2867
     36  CB        16.7320  -18.8890   22.7720 C.3    76  GLU76       0.0388
     37  CG        16.1670  -19.0260   21.3810 C.3    76  GLU76       0.1160
     38  CD        15.5660  -20.4020   21.0940 C.2    76  GLU76       0.3649
     39  OE1       16.2400  -21.4330   21.3500 O.co2  76  GLU76      -0.2457
     40  OE2       14.4140  -20.4480   20.5950 O.co2  76  GLU76      -0.2457
     41  N         12.9100  -22.7520   25.8250 N.3    83  SER83      -0.1202
     42  CA        12.8800  -21.9410   24.6170 C.3    83  SER83       0.2020
     43  C         11.9770  -22.5510   23.5250 C.2    83  SER83       0.2619
     44  O         12.3860  -23.4750   22.8220 O.2    83  SER83      -0.2717
     45  CB        14.3020  -21.7750   24.0620 C.3    83  SER83       0.2103
     46  OG        15.1370  -21.1130   24.9940 O.3    83  SER83      -0.2182
     47  N         10.7540  -22.0520   23.3940 N.am   84  TYR84      -0.1961
     48  CA         9.8560  -22.5310   22.3600 C.3    84  TYR84       0.1771
     49  C         10.1610  -21.7800   21.0650 C.2    84  TYR84       0.2620
     50  O         10.1750  -20.5560   21.0180 O.2    84  TYR84      -0.2715
     51  CB         8.4130  -22.3200   22.8090 C.3    84  TYR84       0.0574
     52  CG         8.0730  -23.1700   24.0220 C.ar   84  TYR84      -0.0198
     53  CD1        7.9920  -24.5700   23.9210 C.ar   84  TYR84      -0.0009
     54  CD2        7.9010  -22.5900   25.2870 C.ar   84  TYR84      -0.0009
     55  CE1        7.7510  -25.3700   25.0570 C.ar   84  TYR84       0.0417
     56  CE2        7.6560  -23.3850   26.4250 C.ar   84  TYR84       0.0417
     57  CZ         7.5830  -24.7690   26.2930 C.ar   84  TYR84       0.1957
     58  OH         7.3180  -25.5420   27.3920 O.3    84  TYR84      -0.2866
     59  N         10.4240  -22.5280   20.0070 N.am   85  THR85      -0.1937
     60  CA        10.7600  -21.9430   18.7200 C.3    85  THR85       0.2028
     61  C          9.7170  -20.9430   18.2340 C.2    85  THR85       0.2642
     62  O         10.0550  -19.9360   17.5940 O.2    85  THR85      -0.2714
     63  CB        10.9490  -23.0400   17.6970 C.3    85  THR85       0.1808
     64  OG1       11.8670  -23.9880   18.2360 O.3    85  THR85      -0.2208
     65  CG2       11.5010  -22.4910   16.4010 C.3    85  THR85       0.0379
     66  N          8.4540  -21.2210   18.5330 N.am   86  TYR86      -0.1973
     67  CA         7.4090  -20.3100   18.1250 C.3    86  TYR86       0.1639
     68  C          7.6270  -18.9380   18.7440 C.2    86  TYR86       0.2290
     69  O          7.5970  -17.9230   18.0500 O.2    86  TYR86      -0.2864
     70  CB         6.0280  -20.8300   18.5030 C.3    86  TYR86       0.0560
     71  CG         4.9630  -19.7950   18.2520 C.ar   86  TYR86      -0.0198
     72  CD1        4.5080  -18.9610   19.2790 C.ar   86  TYR86      -0.0009
     73  CD2        4.4250  -19.6190   16.9800 C.ar   86  TYR86      -0.0009
     74  CE1        3.5510  -17.9890   19.0430 C.ar   86  TYR86       0.0417
     75  CE2        3.4620  -18.6460   16.7300 C.ar   86  TYR86       0.0417
     76  CZ         3.0330  -17.8350   17.7670 C.ar   86  TYR86       0.1957
     77  OH         2.0980  -16.8520   17.5140 O.3    86  TYR86      -0.2866
     78  N         14.3850  -22.4600    9.1470 N.3   103  PHE103     -0.1241
     79  CA        14.7700  -23.2000   10.3480 C.3   103  PHE103      0.1605
     80  C         15.2040  -24.6490    9.9910 C.2   103  PHE103      0.2264
     81  O         14.3820  -25.5010    9.6040 O.2   103  PHE103     -0.2867
     82  CB        13.6180  -23.1990   11.3500 C.3   103  PHE103      0.0534
     83  CG        14.0600  -23.4130   12.7780 C.ar  103  PHE103     -0.0203
     84  CD1       14.3880  -22.3310   13.5950 C.ar  103  PHE103     -0.0042
     85  CD2       14.1720  -24.6870   13.2930 C.ar  103  PHE103     -0.0042
     86  CE1       14.8190  -22.5290   14.8960 C.ar  103  PHE103     -0.0003
     87  CE2       14.6030  -24.8930   14.5950 C.ar  103  PHE103     -0.0003
     88  CZ        14.9280  -23.8080   15.3980 C.ar  103  PHE103     -0.0000
     89  N         16.5770  -28.3880   10.4930 N.3   105  ILE105     -0.1245
     90  CA        16.3630  -29.4740   11.4120 C.3   105  ILE105      0.1561
     91  C         16.9730  -30.7760   10.8870 C.2   105  ILE105      0.2260
     92  O         16.9920  -31.0230    9.6820 O.2   105  ILE105     -0.2867
     93  CB        14.8350  -29.6090   11.6450 C.3   105  ILE105      0.0252
     94  CG1       14.5250  -29.2380   13.0830 C.3   105  ILE105      0.0019
     95  CG2       14.3090  -30.9750   11.2690 C.3   105  ILE105      0.0019
     96  CD1       14.1630  -27.7870   13.2490 C.3   105  ILE105      0.0001
     97  N         14.6520  -35.4470   13.5450 N.3   109  MET109     -0.1245
     98  CA        13.8100  -34.6000   14.3730 C.3   109  MET109      0.1570
     99  C         12.4630  -34.3530   13.6790 C.2   109  MET109      0.2261
    100  O         11.4500  -34.0850   14.3270 O.2   109  MET109     -0.2867
    101  CB        14.5450  -33.2830   14.6410 C.3   109  MET109      0.0387
    102  CG        13.6690  -32.1280   15.1220 C.3   109  MET109      0.0595
    103  SD        12.7760  -32.4030   16.6970 S.3   109  MET109     -0.1393
    104  CE        14.0490  -31.8310   17.9020 C.3   109  MET109      0.0692
    105  N          4.5510  -32.2830   17.6100 N.3   115  LYS115     -0.1231
    106  CA         4.5410  -32.0750   19.0380 C.3   115  LYS115      0.1693
    107  C          5.1500  -30.7350   19.4450 C.2   115  LYS115      0.2592
    108  O          5.0690  -30.3510   20.6060 O.2   115  LYS115     -0.2718
    109  CB         5.2430  -33.2410   19.7140 C.3   115  LYS115      0.0285
    110  CG         4.8440  -34.5570   19.0730 C.3   115  LYS115      0.0035
    111  CD         4.6570  -35.6250   20.1090 C.3   115  LYS115      0.0206
    112  CE         4.0730  -36.8900   19.5110 C.3   115  LYS115      0.1093
    113  NZ         3.5680  -37.7430   20.6160 N.3   115  LYS115     -0.1314
    114  N          5.7430  -30.0130   18.4990 N.am  116  TRP116     -0.1962
    115  CA         6.2870  -28.7010   18.8360 C.3   116  TRP116      0.1771
    116  C          5.1370  -27.7810   19.2060 C.2   116  TRP116      0.2619
    117  O          3.9960  -28.0060   18.8090 O.2   116  TRP116     -0.2715
    118  CB         7.0660  -28.1000   17.6750 C.3   116  TRP116      0.0590
    119  CG         8.4000  -28.7380   17.5150 C.ar  116  TRP116      0.0006
    120  CD1        8.7380  -30.0300   17.8260 C.ar  116  TRP116      0.0946
    121  CD2        9.5420  -28.1710   16.8850 C.ar  116  TRP116      0.0152
    122  NE1       10.0090  -30.3030   17.4110 N.ar  116  TRP116     -0.2442
    123  CE2       10.5310  -29.1830   16.8250 C.ar  116  TRP116      0.0810
    124  CE3        9.8280  -26.9060   16.3580 C.ar  116  TRP116      0.0012
    125  CZ2       11.7860  -28.9700   16.2450 C.ar  116  TRP116      0.0191
    126  CZ3       11.0600  -26.6940   15.7870 C.ar  116  TRP116      0.0001
    127  CH2       12.0270  -27.7210   15.7290 C.ar  116  TRP116      0.0015
    128  N          5.4440  -26.7480   19.9730 N.am  117  TYR117     -0.1974
    129  CA         4.4500  -25.7970   20.4170 C.3   117  TYR117      0.1639
    130  C          4.0960  -24.8700   19.2680 C.2   117  TYR117      0.2290
    131  O          4.9800  -24.3450   18.6050 O.2   117  TYR117     -0.2864
    132  CB         5.0020  -25.0290   21.6250 C.3   117  TYR117      0.0560
    133  CG         4.1840  -23.8400   22.0830 C.ar  117  TYR117     -0.0198
    134  CD1        2.9090  -23.9940   22.6620 C.ar  117  TYR117     -0.0009
    135  CD2        4.6890  -22.5510   21.9150 C.ar  117  TYR117     -0.0009
    136  CE1        2.1690  -22.8660   23.0520 C.ar  117  TYR117      0.0417
    137  CE2        3.9830  -21.4440   22.2850 C.ar  117  TYR117      0.0417
    138  CZ         2.7270  -21.5840   22.8430 C.ar  117  TYR117      0.1957
    139  OH         2.0390  -20.4240   23.0900 O.3   117  TYR117     -0.2866
    140  N          3.6820  -21.5950   13.7120 N.3   122  LEU122     -0.1245
    141  CA         5.1120  -21.4140   13.4920 C.3   122  LEU122      0.1561
    142  C          5.4450  -21.5340   12.0150 C.2   122  LEU122      0.2260
    143  O          6.3840  -20.9050   11.5390 O.2   122  LEU122     -0.2867
    144  CB         5.8990  -22.4690   14.2850 C.3   122  LEU122      0.0270
    145  CG         7.4060  -22.5420   14.0310 C.3   122  LEU122      0.0019
    146  CD1        8.0550  -21.1530   14.2130 C.3   122  LEU122      0.0001
    147  CD2        8.0160  -23.5710   14.9790 C.3   122  LEU122      0.0001
@<TRIPOS>BOND
     1    78    79    1
     2    81    80    2
     3    92    91    2
     4    80    79    1
     5    79    82    1
     6    89    90    1
     7    91    90    1
     8    95    93    1
     9    82    83    1
    10    90    93    1
    11   143   142    2
    12    93    94    1
    13   142   141    1
    14    83    85   ar
    15    83    84   ar
    16    94    96    1
    17    85    87   ar
    18   141   140    1
    19   141   144    1
    20    97    98    1
    21    84    86   ar
    22    99   100    2
    23    99    98    1
    24   145   146    1
    25   145   144    1
    26   145   147    1
    27    98   101    1
    28    87    88   ar
    29   101   102    1
    30    86    88   ar
    31   102   103    1
    32     1     2    1
    33   127   126   ar
    34   127   125   ar
    35   126   124   ar
    36   125   123   ar
    37   124   121   ar
    38    65    63    1
    39   103   104    1
    40    75    73   ar
    41    75    76   ar
    42   123   121   ar
    43   123   122   ar
    44   121   119   ar
    45     2     3    1
    46    73    71   ar
    47     4     3    2
    48    16    17    1
    49   122   120   ar
    50    77    76    1
    51   119   118    1
    52   119   120   ar
    53    20    17    1
    54    20    21    1
    55    62    61    2
    56   105   106    1
    57     3     5   am
    58   118   115    1
    59    63    64    1
    60    63    60    1
    61    76    74   ar
    62    23    21    1
    63    69    68    2
    64    17    18    1
    65    67    70    1
    66    67    66    1
    67    67    68    1
    68    61    66   am
    69    61    60    1
    70    71    70    1
    71    71    72   ar
    72    22    21    1
    73   114   115    1
    74   114   107   am
    75   131   130    2
    76    60    59    1
    77   117   116    2
    78   115   116    1
    79     5     6    1
    80   106   107    1
    81   106   109    1
    82    74    72   ar
    83   110   109    1
    84   110   111    1
    85   116   128   am
    86   130   129    1
    87    19    18    2
    88   107   108    2
    89   112   111    1
    90   112   113    1
    91     6     7    1
    92   128   129    1
    93    59    49   am
    94   129   132    1
    95    40    38   ar
    96     7     8    2
    97     7     9   am
    98    50    49    2
    99    49    48    1
   100    38    39   ar
   101    38    37    1
   102    37    36    1
   103   132   133    1
   104     9    10    1
   105   135   133   ar
   106   135   137   ar
   107   133   134   ar
   108    32    33    1
   109   137   138   ar
   110    48    51    1
   111    48    47    1
   112    30    29    2
   113   134   136   ar
   114    36    33    1
   115    11    10    1
   116    11    12    2
   117    51    52    1
   118    44    43    2
   119    24    25    1
   120   138   136   ar
   121   138   139    1
   122    10    13    1
   123    33    34    1
   124    29    28    1
   125    29    31   am
   126    47    43   am
   127    28    25    1
   128    14    13    1
   129    43    42    1
   130    25    26    1
   131    53    52   ar
   132    53    55   ar
   133    52    54   ar
   134    13    15    1
   135    45    42    1
   136    45    46    1
   137    34    35    2
   138    42    41    1
   139    55    57   ar
   140    26    27    2
   141    54    56   ar
   142    57    56   ar
   143    57    58    1
