@<TRIPOS>MOLECULE
tmp/2qttB00.pdb
 143 133 0 0 0
SMALL
GASTEIGER

@<TRIPOS>ATOM
      1  N        -23.7240  -17.7180  -13.6530 N.3    12  ALA12      -0.1231
      2  CA       -23.7850  -16.3950  -14.2620 C.3    12  ALA12       0.1694
      3  C        -25.2030  -15.9130  -14.5100 C.2    12  ALA12       0.2591
      4  O        -25.4200  -14.7070  -14.5630 O.2    12  ALA12      -0.2718
      5  CB       -22.9610  -16.3410  -15.5740 C.3    12  ALA12       0.0304
      6  N        -26.1430  -16.8440  -14.6660 N.am   13  MET13      -0.1979
      7  CA       -27.5490  -16.4970  -15.0140 C.3    13  MET13       0.1605
      8  C        -28.5380  -17.0380  -13.9970 C.2    13  MET13       0.2287
      9  O        -28.5040  -18.2340  -13.6580 O.2    13  MET13      -0.2864
     10  CB       -27.8970  -17.0270  -16.4080 C.3    13  MET13       0.0413
     11  CG       -27.0900  -16.3830  -17.5180 C.3    13  MET13       0.0598
     12  SD       -27.4730  -17.0110  -19.1630 S.3    13  MET13      -0.1393
     13  CE       -28.8040  -15.9190  -19.6410 C.3    13  MET13       0.0692
     14  N        -30.3180  -20.1830  -14.7270 N.3    16  GLU16      -0.1245
     15  CA       -29.4980  -21.4070  -14.6280 C.3    16  GLU16       0.1567
     16  C        -29.4110  -21.9370  -13.2090 C.2    16  GLU16       0.2260
     17  O        -29.2620  -23.1550  -12.9980 O.2    16  GLU16      -0.2867
     18  CB       -28.0870  -21.1570  -15.1320 C.3    16  GLU16       0.0388
     19  CG       -27.9870  -20.9180  -16.6100 C.3    16  GLU16       0.1160
     20  CD       -26.6110  -20.4270  -17.0380 C.2    16  GLU16       0.3649
     21  OE1      -25.8890  -19.7790  -16.2510 O.co2  16  GLU16      -0.2457
     22  OE2      -26.2610  -20.6750  -18.1950 O.co2  16  GLU16      -0.2457
     23  N        -23.4640  -11.1470  -17.2400 N.3    68  VAL68      -0.1245
     24  CA       -22.5300  -12.1990  -17.6820 C.3    68  VAL68       0.1561
     25  C        -21.1160  -11.6430  -17.8600 C.2    68  VAL68       0.2260
     26  O        -20.8840  -10.4240  -17.7700 O.2    68  VAL68      -0.2867
     27  CB       -23.0070  -12.9090  -19.0170 C.3    68  VAL68       0.0252
     28  CG1      -24.3000  -13.6760  -18.7880 C.3    68  VAL68       0.0019
     29  CG2      -23.1770  -11.8920  -20.1950 C.3    68  VAL68       0.0019
     30  N        -23.6180  -22.7950  -18.9380 N.3    94  THR94      -0.1203
     31  CA       -23.7170  -23.2910  -20.3040 C.3    94  THR94       0.1994
     32  C        -22.4710  -22.8520  -21.0680 C.2    94  THR94       0.2618
     33  O        -21.7020  -22.0120  -20.5730 O.2    94  THR94      -0.2717
     34  CB       -25.0010  -22.7740  -21.0040 C.3    94  THR94       0.1784
     35  OG1      -25.0560  -21.3420  -20.8960 O.3    94  THR94      -0.2211
     36  CG2      -26.2480  -23.3910  -20.3710 C.3    94  THR94       0.0376
     37  N        -22.2700  -23.4150  -22.2590 N.am   95  CYS95      -0.1955
     38  CA       -21.0760  -23.1390  -23.0560 C.3    95  CYS95       0.1843
     39  C        -21.2890  -23.6050  -24.5000 C.2    95  CYS95       0.2626
     40  O        -22.2270  -24.3560  -24.8030 O.2    95  CYS95      -0.2714
     41  CB       -19.8550  -23.8700  -22.4690 C.3    95  CYS95       0.0997
     42  SG       -19.9240  -25.6700  -22.6020 S.3    95  CYS95      -0.0797
     43  N        -20.4110  -23.1490  -25.3800 N.am   96  GLY96      -0.1954
     44  CA       -20.3210  -23.6920  -26.7190 C.3    96  GLY96       0.1869
     45  C        -19.3650  -24.8620  -26.7060 C.2    96  GLY96       0.2309
     46  O        -18.4500  -24.9290  -25.8640 O.2    96  GLY96      -0.2863
     47  N        -16.8590  -12.3900  -25.0660 N.3   158  SER158     -0.1202
     48  CA       -17.7510  -12.2910  -26.2090 C.3   158  SER158      0.2020
     49  C        -18.4300  -13.6190  -26.4620 C.2   158  SER158      0.2618
     50  O        -17.8400  -14.6750  -26.2550 O.2   158  SER158     -0.2717
     51  CB       -17.0080  -11.7920  -27.4470 C.3   158  SER158      0.2103
     52  OG       -16.4890  -10.4800  -27.2260 O.3   158  SER158     -0.2182
     53  N        -19.6920  -13.5370  -26.8760 N.am  159  LEU159     -0.1979
     54  CA       -20.5150  -14.7030  -27.1310 C.3   159  LEU159      0.1596
     55  C        -20.2300  -15.2150  -28.5380 C.2   159  LEU159      0.2287
     56  O        -20.2810  -16.4160  -28.7850 O.2   159  LEU159     -0.2864
     57  CB       -22.0060  -14.3600  -26.9350 C.3   159  LEU159      0.0297
     58  CG       -23.0090  -15.4460  -27.3380 C.3   159  LEU159      0.0022
     59  CD1      -22.8840  -16.7270  -26.4790 C.3   159  LEU159      0.0001
     60  CD2      -24.4410  -14.9000  -27.3230 C.3   159  LEU159      0.0001
     61  N        -16.1080  -23.4610  -24.8300 N.3   177  LYS177     -0.1231
     62  CA       -15.9930  -22.0030  -24.9310 C.3   177  LYS177      0.1693
     63  C        -17.0570  -21.3300  -24.0610 C.2   177  LYS177      0.2592
     64  O        -18.2820  -21.5530  -24.2600 O.2   177  LYS177     -0.2718
     65  CB       -16.1880  -21.5830  -26.4030 C.3   177  LYS177      0.0285
     66  CG       -16.1470  -20.0490  -26.6520 C.3   177  LYS177      0.0035
     67  CD       -16.2190  -19.7140  -28.1240 C.3   177  LYS177      0.0206
     68  CE       -16.1770  -18.2050  -28.3540 C.3   177  LYS177      0.1093
     69  NZ       -17.2140  -17.4800  -27.5640 N.3   177  LYS177     -0.1314
     70  N        -16.6230  -20.5000  -23.1230 N.am  178  ASP178     -0.1960
     71  CA       -17.5650  -19.8010  -22.2470 C.3   178  ASP178      0.1840
     72  C        -17.1620  -18.3390  -22.0100 C.2   178  ASP178      0.2622
     73  O        -16.2820  -17.8030  -22.7030 O.2   178  ASP178     -0.2715
     74  CB       -17.7290  -20.5540  -20.9180 C.3   178  ASP178      0.1450
     75  CG       -16.6170  -20.2620  -19.9350 C.2   178  ASP178      0.3671
     76  OD1      -15.5060  -19.9620  -20.3800 O.co2 178  ASP178     -0.2456
     77  OD2      -16.8580  -20.3180  -18.7160 O.co2 178  ASP178     -0.2456
     78  N        -17.8010  -17.7070  -21.0320 N.am  179  MET179     -0.1963
     79  CA       -17.5590  -16.2860  -20.7510 C.3   179  MET179      0.1736
     80  C        -17.1360  -15.9350  -19.3230 C.2   179  MET179      0.2616
     81  O        -16.9660  -14.7470  -19.0150 O.2   179  MET179     -0.2715
     82  CB       -18.7800  -15.4600  -21.1570 C.3   179  MET179      0.0427
     83  CG       -18.9590  -15.3490  -22.6890 C.3   179  MET179      0.0599
     84  SD       -20.5990  -14.7590  -23.1560 S.3   179  MET179     -0.1393
     85  CE       -20.5720  -13.0660  -22.5930 C.3   179  MET179      0.0692
     86  N        -16.9720  -16.9450  -18.4570 N.am  180  GLU180     -0.1977
     87  CA       -16.5910  -16.6910  -17.0380 C.3   180  GLU180      0.1602
     88  C        -15.4730  -17.5940  -16.4760 C.2   180  GLU180      0.2287
     89  O        -14.7110  -17.1710  -15.6000 O.2   180  GLU180     -0.2864
     90  CB       -17.8260  -16.8510  -16.1260 C.3   180  GLU180      0.0415
     91  CG       -18.9960  -15.9050  -16.4070 C.3   180  GLU180      0.1163
     92  CD       -19.9850  -16.4200  -17.4690 C.2   180  GLU180      0.3649
     93  OE1      -20.0610  -17.6570  -17.6570 O.co2 180  GLU180     -0.2457
     94  OE2      -20.7040  -15.5700  -18.0920 O.co2 180  GLU180     -0.2457
     95  N        -19.9360  -27.5950  -17.3060 N.3   199  LYS199     -0.1245
     96  CA       -20.2130  -26.7590  -18.4690 C.3   199  LYS199      0.1561
     97  C        -21.0580  -27.5540  -19.4490 C.2   199  LYS199      0.2260
     98  O        -20.6100  -28.5780  -19.9790 O.2   199  LYS199     -0.2867
     99  CB       -18.8960  -26.2730  -19.1090 C.3   199  LYS199      0.0271
    100  CG       -18.0630  -25.3700  -18.1890 C.3   199  LYS199      0.0035
    101  CD       -18.6580  -23.9400  -18.1920 C.3   199  LYS199      0.0206
    102  CE       -18.1710  -23.1560  -16.9720 C.3   199  LYS199      0.1093
    103  NZ       -18.4870  -21.6860  -17.1030 N.3   199  LYS199     -0.1314
    104  N        -24.7090  -25.7480  -25.0840 N.3   202  THR202     -0.1203
    105  CA       -25.9350  -25.2000  -25.6860 C.3   202  THR202      0.1994
    106  C        -25.8430  -24.9850  -27.2070 C.2   202  THR202      0.2617
    107  O        -26.8680  -24.9030  -27.9080 O.2   202  THR202     -0.2717
    108  CB       -26.3030  -23.8230  -25.0830 C.3   202  THR202      0.1784
    109  OG1      -25.1180  -23.0310  -24.9350 O.3   202  THR202     -0.2211
    110  CG2      -26.9680  -23.9800  -23.7490 C.3   202  THR202      0.0376
    111  N        -24.6170  -24.8990  -27.7160 N.am  203  ASP203     -0.1973
    112  CA       -24.3840  -24.5440  -29.1140 C.3   203  ASP203      0.1709
    113  C        -23.0550  -25.1080  -29.6120 C.2   203  ASP203      0.2293
    114  O        -22.1030  -25.2710  -28.8240 O.2   203  ASP203     -0.2864
    115  CB       -24.4150  -23.0190  -29.2660 C.3   203  ASP203      0.1436
    116  CG       -23.4080  -22.3210  -28.3750 C.2   203  ASP203      0.3671
    117  OD1      -23.6550  -22.1530  -27.1620 O.co2 203  ASP203     -0.2456
    118  OD2      -22.3510  -21.9410  -28.8960 O.co2 203  ASP203     -0.2456
    119  N        -19.9060  -24.5190  -31.8020 N.3   205  VAL205     -0.1245
    120  CA       -19.0840  -23.4490  -32.3550 C.3   205  VAL205      0.1561
    121  C        -18.6270  -23.7680  -33.7850 C.2   205  VAL205      0.2260
    122  O        -18.6250  -22.8810  -34.6510 O.2   205  VAL205     -0.2867
    123  CB       -17.9050  -23.0990  -31.4130 C.3   205  VAL205      0.0252
    124  CG1      -17.0970  -21.9180  -31.9590 C.3   205  VAL205      0.0019
    125  CG2      -18.4260  -22.7640  -29.9820 C.3   205  VAL205      0.0019
    126  N        -24.4510  -18.7380  -33.5210 N.3   211  THR211     -0.1218
    127  CA       -24.2320  -18.9650  -32.0770 C.3   211  THR211      0.1862
    128  C        -25.3550  -18.4460  -31.1790 C.2   211  THR211      0.2287
    129  O        -25.8840  -19.1950  -30.3660 O.2   211  THR211     -0.2866
    130  CB       -22.8690  -18.4160  -31.5680 C.3   211  THR211      0.1770
    131  OG1      -21.8020  -19.1070  -32.2260 O.3   211  THR211     -0.2211
    132  CG2      -22.7360  -18.6070  -30.0360 C.3   211  THR211      0.0375
    133  N        -27.7120  -20.9370  -29.0090 N.3   215  PHE215     -0.1241
    134  CA       -27.6120  -20.7180  -27.5590 C.3   215  PHE215      0.1605
    135  C        -29.0090  -20.5060  -26.9500 C.2   215  PHE215      0.2264
    136  O        -29.4260  -21.2450  -26.0560 O.2   215  PHE215     -0.2867
    137  CB       -26.6880  -19.5190  -27.2720 C.3   215  PHE215      0.0534
    138  CG       -26.7730  -19.0000  -25.8580 C.ar  215  PHE215     -0.0203
    139  CD1      -26.3690  -19.7820  -24.7880 C.ar  215  PHE215     -0.0042
    140  CD2      -27.2660  -17.7220  -25.6050 C.ar  215  PHE215     -0.0042
    141  CE1      -26.4650  -19.2990  -23.4690 C.ar  215  PHE215     -0.0003
    142  CE2      -27.3590  -17.2330  -24.3030 C.ar  215  PHE215     -0.0003
    143  CZ       -26.9530  -18.0260  -23.2360 C.ar  215  PHE215     -0.0000
@<TRIPOS>BOND
     1   122   121    2
     2   121   120    1
     3   126   127    1
     4   120   119    1
     5   120   123    1
     6   131   130    1
     7   127   130    1
     8   127   128    1
     9   124   123    1
    10   130   132    1
    11   123   125    1
    12   128   129    2
    13   113   112    1
    14   113   114    2
    15   115   112    1
    16   115   116    1
    17   112   111    1
    18   133   134    1
    19   118   116   ar
    20    56    55    2
    21    55    54    1
    22   116   117   ar
    23    68    67    1
    24    68    69    1
    25    67    66    1
    26   107   106    2
    27   111   106   am
    28   134   137    1
    29   134   135    1
    30    51    52    1
    31    51    48    1
    32    58    60    1
    33    58    57    1
    34    58    59    1
    35   137   138    1
    36   106   105    1
    37    54    57    1
    38    54    53    1
    39   135   136    2
    40    53    49   am
    41    44    45    1
    42    44    43    1
    43    45    46    2
    44    66    65    1
    45    49    50    2
    46    49    48    1
    47    65    62    1
    48    48    47    1
    49   138   140   ar
    50   138   139   ar
    51   105   104    1
    52   105   108    1
    53   140   142   ar
    54    43    39   am
    55   108   109    1
    56   108   110    1
    57    62    61    1
    58    62    63    1
    59    40    39    2
    60   139   141   ar
    61    39    38    1
    62   142   143   ar
    63    64    63    2
    64    63    70   am
    65   141   143   ar
    66    84    83    1
    67    84    85    1
    68    70    71    1
    69    38    41    1
    70    38    37    1
    71    73    72    2
    72    83    82    1
    73    42    41    1
    74    37    32   am
    75    71    72    1
    76    71    74    1
    77    72    78   am
    78    82    79    1
    79    32    33    2
    80    32    31    1
    81    78    79    1
    82    34    35    1
    83    34    36    1
    84    34    31    1
    85    74    75    1
    86    79    80    1
    87    76    75   ar
    88    31    30    1
    89    29    27    1
    90    98    97    2
    91    75    77   ar
    92    13    12    1
    93    97    96    1
    94    80    81    2
    95    80    86   am
    96    12    11    1
    97    99    96    1
    98    99   100    1
    99    27    28    1
   100    27    24    1
   101    96    95    1
   102    86    87    1
   103    22    20   ar
   104   101   100    1
   105   101   102    1
   106    94    92   ar
   107    25    26    2
   108    25    24    1
   109    24    23    1
   110    93    92   ar
   111    11    10    1
   112    92    91    1
   113   103   102    1
   114    20    19    1
   115    20    21   ar
   116    87    88    1
   117    87    90    1
   118    19    18    1
   119    88    89    2
   120    10     7    1
   121    91    90    1
   122     5     2    1
   123    18    15    1
   124     7     6    1
   125     7     8    1
   126    14    15    1
   127     6     3   am
   128    15    16    1
   129     4     3    2
   130     3     2    1
   131     2     1    1
   132     8     9    2
   133    16    17    2
