@<TRIPOS>MOLECULE
tmp/2qttA00.pdb
 78 73 0 0 0
SMALL
GASTEIGER

@<TRIPOS>ATOM
      1  N         -0.9780    4.9430  -17.9660 N.3    97  THR97      -0.1203
      2  CA        -0.6190    5.2110  -19.3460 C.3    97  THR97       0.1994
      3  C         -1.5030    4.3480  -20.2580 C.2    97  THR97       0.2618
      4  O         -2.0400    3.3210  -19.8230 O.2    97  THR97      -0.2717
      5  CB         0.8850    4.9690  -19.6110 C.3    97  THR97       0.1784
      6  OG1        1.1930    3.5860  -19.4050 O.3    97  THR97      -0.2211
      7  CG2        1.7610    5.8480  -18.6750 C.3    97  THR97       0.0376
      8  N         -1.6810    4.7760  -21.5070 N.am   98  CYS98      -0.1955
      9  CA        -2.6080    4.1060  -22.4370 C.3    98  CYS98       0.1843
     10  C         -2.2370    4.4340  -23.8790 C.2    98  CYS98       0.2626
     11  O         -1.3190    5.2180  -24.1310 O.2    98  CYS98      -0.2714
     12  CB        -4.0430    4.5800  -22.1650 C.3    98  CYS98       0.0997
     13  SG        -4.3140    6.3040  -22.6050 S.3    98  CYS98      -0.0797
     14  N         -2.9430    3.8290  -24.8290 N.am   99  GLY99      -0.1954
     15  CA        -2.7380    4.1520  -26.2350 C.3    99  GLY99       0.1869
     16  C         -3.6800    5.2740  -26.6180 C.2    99  GLY99       0.2309
     17  O         -4.6660    5.5260  -25.9120 O.2    99  GLY99      -0.2863
     18  N         -6.7270   -7.0440  -24.3790 N.3   161  SER161     -0.1202
     19  CA        -5.5790   -7.2240  -25.2850 C.3   161  SER161      0.2020
     20  C         -4.7810   -5.9230  -25.4670 C.2   161  SER161      0.2618
     21  O         -5.3540   -4.8350  -25.5920 O.2   161  SER161     -0.2717
     22  CB        -6.0090   -7.7990  -26.6410 C.3   161  SER161      0.2103
     23  OG        -6.5400   -9.0980  -26.4660 O.3   161  SER161     -0.2182
     24  N         -3.4580   -6.0710  -25.4680 N.am  162  LEU162     -0.1979
     25  CA        -2.5150   -4.9710  -25.6580 C.3   162  LEU162      0.1596
     26  C         -2.3810   -4.5910  -27.1140 C.2   162  LEU162      0.2287
     27  O         -2.1020   -3.4260  -27.4440 O.2   162  LEU162     -0.2864
     28  CB        -1.1360   -5.3670  -25.1400 C.3   162  LEU162      0.0297
     29  CG        -0.0560   -4.2950  -25.3000 C.3   162  LEU162      0.0022
     30  CD1       -0.4340   -3.0630  -24.4870 C.3   162  LEU162      0.0001
     31  CD2        1.2780   -4.8520  -24.8700 C.3   162  LEU162      0.0001
     32  N         -7.2340    4.0930  -25.6740 N.3   180  LYS180     -0.1231
     33  CA        -7.3400    2.6330  -25.5530 C.3   180  LYS180      0.1693
     34  C         -6.5330    2.1230  -24.3440 C.2   180  LYS180      0.2592
     35  O         -5.3410    2.4230  -24.2080 O.2   180  LYS180     -0.2718
     36  CB        -6.8520    1.9780  -26.8510 C.3   180  LYS180      0.0285
     37  CG        -6.9830    0.4470  -26.9550 C.3   180  LYS180      0.0035
     38  CD        -6.1860   -0.0270  -28.1850 C.3   180  LYS180      0.0206
     39  CE        -6.0960   -1.5710  -28.2620 C.3   180  LYS180      0.1093
     40  NZ        -5.2560   -2.1090  -27.1440 N.3   180  LYS180     -0.1314
     41  N         -7.1660    1.3540  -23.4590 N.am  181  ASP181     -0.1960
     42  CA        -6.4270    0.7820  -22.3230 C.3   181  ASP181      0.1840
     43  C         -6.8550   -0.6420  -21.9790 C.2   181  ASP181      0.2621
     44  O         -7.5840   -1.2770  -22.7440 O.2   181  ASP181     -0.2715
     45  CB        -6.5080    1.6850  -21.0730 C.3   181  ASP181      0.1450
     46  CG        -7.8330    1.5370  -20.3300 C.2   181  ASP181      0.3671
     47  OD1       -8.8140    1.1160  -20.9770 O.co2 181  ASP181     -0.2456
     48  OD2       -7.8890    1.8420  -19.1200 O.co2 181  ASP181     -0.2456
     49  N         -6.4230   -1.1190  -20.8050 N.am  182  MET182     -0.1977
     50  CA        -6.7570   -2.4760  -20.3800 C.3   182  MET182      0.1605
     51  C         -7.5290   -2.6000  -19.0590 C.2   182  MET182      0.2287
     52  O         -7.7820   -3.7040  -18.5990 O.2   182  MET182     -0.2864
     53  CB        -5.4940   -3.3560  -20.3990 C.3   182  MET182      0.0413
     54  CG        -4.9220   -3.5080  -21.8240 C.3   182  MET182      0.0598
     55  SD        -3.2590   -4.2800  -21.8840 S.3   182  MET182     -0.1393
     56  CE        -3.5910   -5.9090  -21.2050 C.3   182  MET182      0.0692
     57  N          1.0000    7.0610  -24.0980 N.3   205  THR205     -0.1203
     58  CA         2.4000    6.6520  -24.3320 C.3   205  THR205      0.1994
     59  C          2.6450    6.1380  -25.7360 C.2   205  THR205      0.2617
     60  O          3.8040    5.9830  -26.1430 O.2   205  THR205     -0.2717
     61  CB         2.8820    5.5080  -23.3970 C.3   205  THR205      0.1784
     62  OG1        1.9420    4.4250  -23.4020 O.3   205  THR205     -0.2211
     63  CG2        3.1050    6.0050  -21.9960 C.3   205  THR205      0.0376
     64  N          1.5690    5.8280  -26.4610 N.am  206  ASP206     -0.1973
     65  CA         1.6980    5.2710  -27.8080 C.3   206  ASP206      0.1709
     66  C          0.5300    5.6530  -28.7020 C.2   206  ASP206      0.2293
     67  O         -0.6190    5.7480  -28.2490 O.2   206  ASP206     -0.2864
     68  CB         1.8300    3.7530  -27.7560 C.3   206  ASP206      0.1436
     69  CG         0.6240    3.0850  -27.1240 C.2   206  ASP206      0.3671
     70  OD1        0.4510    3.1570  -25.8880 O.co2 206  ASP206     -0.2456
     71  OD2       -0.1580    2.4900  -27.8740 O.co2 206  ASP206     -0.2456
     72  N         -1.7800    4.4830  -31.4690 N.3   208  VAL208     -0.1245
     73  CA        -2.2490    3.2160  -32.0040 C.3   208  VAL208      0.1561
     74  C         -2.2830    3.2810  -33.5310 C.2   208  VAL208      0.2260
     75  O         -2.0230    2.2810  -34.2070 O.2   208  VAL208     -0.2867
     76  CB        -3.6330    2.8120  -31.4210 C.3   208  VAL208      0.0252
     77  CG1       -4.0800    1.4670  -31.9690 C.3   208  VAL208      0.0019
     78  CG2       -3.5560    2.7090  -29.9200 C.3   208  VAL208      0.0019
@<TRIPOS>BOND
     1    75    74    2
     2    74    73    1
     3    73    72    1
     4    73    76    1
     5    77    76    1
     6    76    78    1
     7    66    67    2
     8    66    65    1
     9    39    38    1
    10    39    40    1
    11    38    37    1
    12    71    69   ar
    13    65    68    1
    14    65    64    1
    15    68    69    1
    16    27    26    2
    17    69    70   ar
    18    26    25    1
    19    37    36    1
    20    36    33    1
    21    22    23    1
    22    22    19    1
    23    16    15    1
    24    16    17    2
    25    64    59   am
    26    15    14    1
    27    60    59    2
    28    59    58    1
    29    32    33    1
    30    25    24    1
    31    25    28    1
    32    21    20    2
    33    33    34    1
    34    24    20   am
    35    20    19    1
    36    29    28    1
    37    29    31    1
    38    29    30    1
    39    19    18    1
    40    14    10   am
    41    34    35    2
    42    34    41   am
    43    58    57    1
    44    58    61    1
    45    11    10    2
    46    10     9    1
    47    41    42    1
    48    62    61    1
    49    61    63    1
    50    44    43    2
    51    13    12    1
    52     9    12    1
    53     9     8    1
    54    42    43    1
    55    42    45    1
    56    43    49   am
    57    55    54    1
    58    55    56    1
    59    54    53    1
    60     8     3   am
    61    45    46    1
    62    47    46   ar
    63    49    50    1
    64    53    50    1
    65    50    51    1
    66    46    48   ar
    67     3     4    2
    68     3     2    1
    69     5     6    1
    70     5     2    1
    71     5     7    1
    72     2     1    1
    73    51    52    2
