@<TRIPOS>MOLECULE
tmp/2qtzA01.pdb
 155 147 0 0 0
SMALL
GASTEIGER

@<TRIPOS>ATOM
      1  N         29.0350   18.9040   39.9680 N.3    61  LYS61      -0.1245
      2  CA        28.4320   20.0290   40.6730 C.3    61  LYS61       0.1561
      3  C         27.0590   20.2650   40.0680 C.2    61  LYS61       0.2260
      4  O         26.9150   20.1550   38.8540 O.2    61  LYS61      -0.2867
      5  CB        29.2900   21.2800   40.4970 C.3    61  LYS61       0.0271
      6  CG        30.7620   21.0850   40.9540 C.3    61  LYS61       0.0035
      7  CD        31.3350   22.4500   41.2590 C.3    61  LYS61       0.0206
      8  CE        32.3340   22.8850   40.2660 C.3    61  LYS61       0.1093
      9  NZ        33.6790   22.7590   40.9110 N.3    61  LYS61      -0.1314
     10  N         26.0700   27.1990   41.0210 N.3   239  ASN239     -0.1240
     11  CA        26.4130   25.8400   41.4600 C.3   239  ASN239      0.1653
     12  C         26.1130   25.7550   42.9390 C.2   239  ASN239      0.2266
     13  O         26.4160   26.7150   43.7160 O.2   239  ASN239     -0.2867
     14  CB        27.9190   25.5580   41.2680 C.3   239  ASN239      0.1155
     15  CG        28.2890   25.3400   39.8280 C.2   239  ASN239      0.2627
     16  OD1       27.4790   24.8580   39.0340 O.2   239  ASN239     -0.2716
     17  ND2       29.5320   25.6850   39.4760 N.am  239  ASN239     -0.0877
     18  N         33.6310   30.0750   31.3410 N.3   298  PRO298     -0.2102
     19  CA        33.5810   28.6410   31.6510 C.3   298  PRO298      0.1504
     20  C         32.6260   28.3570   32.8030 C.2   298  PRO298      0.2576
     21  O         32.5090   29.1590   33.7560 O.2   298  PRO298     -0.2718
     22  CB        35.0340   28.2920   32.0530 C.3   298  PRO298      0.0282
     23  CG        35.6820   29.5820   32.3750 C.3   298  PRO298      0.0208
     24  CD        34.8760   30.7180   31.7960 C.3   298  PRO298      0.0893
     25  N         31.9720   27.2060   32.7350 N.am  299  GLY299     -0.1943
     26  CA        30.9580   26.8370   33.7430 C.3   299  GLY299      0.2014
     27  C         29.9040   27.9110   33.9700 C.2   299  GLY299      0.2639
     28  O         29.3660   28.5060   33.0200 O.2   299  GLY299     -0.2714
     29  N         29.6000   28.1690   35.2400 N.am  300  THR300     -0.1950
     30  CA        28.5430   29.1400   35.5560 C.3   300  THR300      0.1897
     31  C         28.9260   30.5620   35.2220 C.2   300  THR300      0.2313
     32  O         28.0570   31.4450   35.2240 O.2   300  THR300     -0.2863
     33  CB        28.1200   29.0910   37.0180 C.3   300  THR300      0.1794
     34  OG1       29.3040   29.1740   37.8000 O.3   300  THR300     -0.2208
     35  CG2       27.4290   27.7610   37.3480 C.3   300  THR300      0.0378
     36  N         33.3200   26.7640   28.3840 N.3   332  GLY332     -0.1210
     37  CA        34.0460   25.5580   28.7260 C.3   332  GLY332      0.1956
     38  C         33.2360   24.8260   29.7730 C.2   332  GLY332      0.2612
     39  O         32.6120   25.4600   30.6210 O.2   332  GLY332     -0.2717
     40  N         33.2330   23.5000   29.6930 N.am  333  CYS333     -0.1956
     41  CA        32.6980   22.6620   30.7990 C.3   333  CYS333      0.1843
     42  C         33.4700   21.3490   30.8310 C.2   333  CYS333      0.2625
     43  O         34.4010   21.1790   30.0560 O.2   333  CYS333     -0.2714
     44  CB        31.1840   22.4100   30.6280 C.3   333  CYS333      0.0997
     45  SG        30.7650   21.5910   29.1140 S.3   333  CYS333     -0.0797
     46  N         33.1100   20.4410   31.7350 N.am  334  ARG334     -0.1977
     47  CA        33.8380   19.1600   31.8950 C.3   334  ARG334      0.1597
     48  C         33.4180   18.1120   30.8710 C.2   334  ARG334      0.2287
     49  O         34.2680   17.4360   30.2970 O.2   334  ARG334     -0.2864
     50  CB        33.6690   18.6180   33.3230 C.3   334  ARG334      0.0334
     51  CG        34.2720   19.5480   34.4010 C.3   334  ARG334      0.0492
     52  CD        34.0250   19.0590   35.8120 C.3   334  ARG334      0.2205
     53  NE        32.5990   18.8540   36.0530 N.pl3 334  ARG334     -0.0865
     54  CZ        31.7520   19.7740   36.5170 C.cat 334  ARG334      0.5346
     55  NH1       32.1790   21.0040   36.8680 N.pl3 334  ARG334      0.1354
     56  NH2       30.4650   19.4430   36.6630 N.pl3 334  ARG334      0.1354
     57  N         27.3780   18.7590   31.7700 N.3   339  ASP339     -0.1239
     58  CA        27.3660   20.1380   32.2920 C.3   339  ASP339      0.1674
     59  C         27.5290   21.1860   31.1910 C.2   339  ASP339      0.2266
     60  O         28.0750   22.2830   31.4260 O.2   339  ASP339     -0.2867
     61  CB        28.4090   20.3380   33.3990 C.3   339  ASP339      0.1410
     62  CG        29.8450   20.0850   32.9270 C.2   339  ASP339      0.3668
     63  OD1       30.0080   19.4420   31.8850 O.co2 339  ASP339     -0.2456
     64  OD2       30.8220   20.5530   33.5730 O.co2 339  ASP339     -0.2456
     65  N         36.6710   19.6610   29.1470 N.3   363  SER363     -0.1202
     66  CA        37.9590   19.4270   29.7950 C.3   363  SER363      0.2020
     67  C         38.1800   17.9830   30.1840 C.2   363  SER363      0.2618
     68  O         39.3350   17.5770   30.4110 O.2   363  SER363     -0.2717
     69  CB        38.1370   20.3140   31.0220 C.3   363  SER363      0.2103
     70  OG        37.1040   20.0520   31.9590 O.3   363  SER363     -0.2182
     71  N         37.1020   17.2000   30.2840 N.am  364  ARG364     -0.1979
     72  CA        37.2730   15.8060   30.7590 C.3   364  ARG364      0.1597
     73  C         36.7360   14.7660   29.8110 C.2   364  ARG364      0.2287
     74  O         36.6570   13.6010   30.1850 O.2   364  ARG364     -0.2864
     75  CB        36.6520   15.6160   32.1470 C.3   364  ARG364      0.0334
     76  CG        37.2060   16.6050   33.1860 C.3   364  ARG364      0.0492
     77  CD        36.6530   16.3360   34.5730 C.3   364  ARG364      0.2205
     78  NE        37.0630   17.4280   35.4510 N.pl3 364  ARG364     -0.0865
     79  CZ        37.0290   17.3940   36.7850 C.cat 364  ARG364      0.5346
     80  NH1       36.6030   16.3140   37.4300 N.pl3 364  ARG364      0.1354
     81  NH2       37.4190   18.4620   37.4800 N.pl3 364  ARG364      0.1354
     82  N         40.9620   21.6760   25.5600 N.3   370  LYS370     -0.1231
     83  CA        40.5630   21.3260   26.9150 C.3   370  LYS370      0.1693
     84  C         39.8900   22.4900   27.6720 C.2   370  LYS370      0.2592
     85  O         38.8620   22.3080   28.3380 O.2   370  LYS370     -0.2718
     86  CB        41.7940   20.8950   27.6840 C.3   370  LYS370      0.0285
     87  CG        41.4930   20.2990   29.0340 C.3   370  LYS370      0.0035
     88  CD        42.7740   20.2020   29.8790 C.3   370  LYS370      0.0206
     89  CE        42.4410   19.8400   31.3300 C.3   370  LYS370      0.1093
     90  NZ        43.6440   19.2770   32.0380 N.3   370  LYS370     -0.1314
     91  N         40.4870   23.6750   27.5740 N.am  371  TYR371     -0.1962
     92  CA        39.9920   24.8640   28.2900 C.3   371  TYR371      0.1771
     93  C         39.7320   26.0360   27.3410 C.2   371  TYR371      0.2619
     94  O         40.2110   26.0310   26.2090 O.2   371  TYR371     -0.2715
     95  CB        41.0430   25.3200   29.3040 C.3   371  TYR371      0.0574
     96  CG        41.2480   24.4250   30.5200 C.ar  371  TYR371     -0.0198
     97  CD1       40.1890   23.7530   31.1280 C.ar  371  TYR371     -0.0009
     98  CD2       42.5000   24.3310   31.1110 C.ar  371  TYR371     -0.0009
     99  CE1       40.3820   22.9490   32.2720 C.ar  371  TYR371      0.0417
    100  CE2       42.7020   23.5440   32.2710 C.ar  371  TYR371      0.0417
    101  CZ        41.6360   22.8660   32.8420 C.ar  371  TYR371      0.1957
    102  OH        41.8580   22.0990   33.9740 O.3   371  TYR371     -0.2866
    103  N         39.0150   27.0630   27.8190 N.am  372  VAL372     -0.1963
    104  CA        38.6710   28.1980   26.9630 C.3   372  VAL372      0.1727
    105  C         39.9120   28.8870   26.3740 C.2   372  VAL372      0.2616
    106  O         39.8880   29.3000   25.2240 O.2   372  VAL372     -0.2715
    107  CB        37.7850   29.2350   27.6810 C.3   372  VAL372      0.0290
    108  CG1       36.3570   28.6600   27.8400 C.3   372  VAL372      0.0023
    109  CG2       38.3910   29.6540   29.0250 C.3   372  VAL372      0.0023
    110  N         40.9940   28.9780   27.1240 N.am  373  GLN373     -0.1977
    111  CA        42.2000   29.6830   26.5950 C.3   373  GLN373      0.1601
    112  C         42.8220   28.9480   25.3880 C.2   373  GLN373      0.2287
    113  O         43.4270   29.5810   24.5070 O.2   373  GLN373     -0.2864
    114  CB        43.2520   29.8980   27.6910 C.3   373  GLN373      0.0394
    115  CG        43.6680   28.6370   28.4250 C.3   373  GLN373      0.0908
    116  CD        42.8490   28.3780   29.6810 C.2   373  GLN373      0.2608
    117  OE1       41.6980   28.7770   29.7860 O.2   373  GLN373     -0.2717
    118  NE2       43.4570   27.7150   30.6440 N.am  373  GLN373     -0.0878
    119  N         34.3860   31.6360   38.2920 N.3   399  ASP399     -0.1225
    120  CA        34.7110   31.5370   39.7190 C.3   399  ASP399      0.1805
    121  C         36.2080   31.5750   40.0240 C.2   399  ASP399      0.2597
    122  O         36.5880   32.1310   41.0740 O.2   399  ASP399     -0.2718
    123  CB        33.9780   30.3700   40.4180 C.3   399  ASP399      0.1424
    124  CG        34.0660   30.4480   41.9440 C.2   399  ASP399      0.3668
    125  OD1       33.8820   31.5580   42.5000 O.co2 399  ASP399     -0.2456
    126  OD2       34.3210   29.4040   42.5990 O.co2 399  ASP399     -0.2456
    127  N         37.0480   31.0290   39.1270 N.am  400  ALA400     -0.1979
    128  CA        38.5070   30.8770   39.3860 C.3   400  ALA400      0.1597
    129  C         39.3650   32.0860   38.9780 C.2   400  ALA400      0.2287
    130  O         39.2620   32.5860   37.8330 O.2   400  ALA400     -0.2864
    131  CB        39.0540   29.5930   38.7110 C.3   400  ALA400      0.0319
    132  N         42.5010   31.5850   38.8520 N.3   402  ASN402     -0.1225
    133  CA        43.3440   30.7910   37.9660 C.3   402  ASN402      0.1785
    134  C         42.8970   30.8880   36.5200 C.2   402  ASN402      0.2597
    135  O         43.7230   31.1140   35.6660 O.2   402  ASN402     -0.2718
    136  CB        43.4060   29.3250   38.3760 C.3   402  ASN402      0.1169
    137  CG        44.6810   28.9770   39.1820 C.2   402  ASN402      0.2627
    138  OD1       45.1290   27.8150   39.1910 O.2   402  ASN402     -0.2716
    139  ND2       45.2510   29.9710   39.8620 N.am  402  ASN402     -0.0877
    140  N         41.5980   30.7110   36.2570 N.am  403  MET403     -0.1979
    141  CA        41.0890   30.8300   34.8960 C.3   403  MET403      0.1605
    142  C         41.3800   32.2190   34.3420 C.2   403  MET403      0.2287
    143  O         41.8460   32.3360   33.2250 O.2   403  MET403     -0.2864
    144  CB        39.5900   30.4710   34.8410 C.3   403  MET403      0.0413
    145  CG        38.9930   30.5420   33.4460 C.3   403  MET403      0.0598
    146  SD        38.4310   32.2060   33.0540 S.3   403  MET403     -0.1393
    147  CE        37.1930   32.4670   34.3720 C.3   403  MET403      0.0692
    148  N         45.0580   32.5370   33.4440 N.3   406  ASP406     -0.1239
    149  CA        45.3460   31.7350   32.2560 C.3   406  ASP406      0.1674
    150  C         44.8180   32.3710   30.9740 C.2   406  ASP406      0.2266
    151  O         45.4430   32.2850   29.9240 O.2   406  ASP406     -0.2867
    152  CB        44.7910   30.3280   32.4130 C.3   406  ASP406      0.1410
    153  CG        45.5330   29.5180   33.4730 C.2   406  ASP406      0.3668
    154  OD1       46.6710   29.8820   33.8280 O.co2 406  ASP406     -0.2456
    155  OD2       44.9550   28.5270   33.9620 O.co2 406  ASP406     -0.2456
@<TRIPOS>BOND
     1   113   112    2
     2   106   105    2
     3   112   111    1
     4    82    83    1
     5    94    93    2
     6   105   104    1
     7   105   110   am
     8   111   110    1
     9   111   114    1
    10    83    84    1
    11    83    86    1
    12   104   107    1
    13   104   103    1
    14    93   103   am
    15    93    92    1
    16    91    84   am
    17    91    92    1
    18    84    85    2
    19   107   108    1
    20   107   109    1
    21    86    87    1
    22   114   115    1
    23    92    95    1
    24    36    37    1
    25   115   116    1
    26    37    38    1
    27    87    88    1
    28    45    44    1
    29    65    66    1
    30    95    96    1
    31   116   117    2
    32   116   118   am
    33    40    38   am
    34    40    41    1
    35    38    39    2
    36    66    67    1
    37    66    69    1
    38    73    74    2
    39    73    72    1
    40    88    89    1
    41   151   150    2
    42    43    42    2
    43    67    71   am
    44    67    68    2
    45    71    72    1
    46    49    48    2
    47    96    98   ar
    48    96    97   ar
    49    44    41    1
    50    72    75    1
    51    41    42    1
    52    42    46   am
    53    48    47    1
    54   150   149    1
    55    69    70    1
    56    98   100   ar
    57    97    99   ar
    58    59    60    2
    59    59    58    1
    60    89    90    1
    61    18    19    1
    62    18    24    1
    63    19    22    1
    64    19    20    1
    65    46    47    1
    66    57    58    1
    67    24    23    1
    68    63    62   ar
    69    47    50    1
    70    22    23    1
    71    75    76    1
    72   149   152    1
    73   149   148    1
    74   100   101   ar
    75    99   101   ar
    76    58    61    1
    77   152   153    1
    78    25    20   am
    79    25    26    1
    80    20    21    2
    81   101   102    1
    82    62    61    1
    83    62    64   ar
    84    28    27    2
    85   146   145    1
    86   146   147    1
    87    76    77    1
    88   143   142    2
    89    50    51    1
    90   145   144    1
    91   153   154   ar
    92   153   155   ar
    93    26    27    1
    94    27    29   am
    95   142   141    1
    96    51    52    1
    97    77    78    1
    98   144   141    1
    99   141   140    1
   100    31    32    2
   101    31    30    1
   102    29    30    1
   103    78    79    2
   104    30    33    1
   105   135   134    2
   106    52    53    1
   107    53    54    2
   108   140   134   am
   109    54    56    1
   110    54    55    1
   111   134   133    1
   112    79    80    1
   113    79    81    1
   114    33    35    1
   115    33    34    1
   116   130   129    2
   117   133   136    1
   118   133   132    1
   119   119   120    1
   120   136   137    1
   121   131   128    1
   122     4     3    2
   123   129   128    1
   124    16    15    2
   125   127   128    1
   126   127   121   am
   127   137   138    2
   128   137   139   am
   129    17    15   am
   130   120   121    1
   131   120   123    1
   132    15    14    1
   133     1     2    1
   134   121   122    2
   135     3     2    1
   136     8     9    1
   137     8     7    1
   138   123   124    1
   139     5     2    1
   140     5     6    1
   141     6     7    1
   142    10    11    1
   143    14    11    1
   144    11    12    1
   145   124   125   ar
   146   124   126   ar
   147    12    13    2
