@<TRIPOS>MOLECULE
tmp/2qu2A00.pdb
 181 171 0 0 0
SMALL
GASTEIGER

@<TRIPOS>ATOM
      1  N          5.1650   -0.2570   13.1550 N.3    15  GLN15      -0.1245
      2  CA         5.2410   -1.7110   13.3210 C.3    15  GLN15       0.1566
      3  C          6.1660   -2.4130   12.3300 C.2    15  GLN15       0.2260
      4  O          6.0910   -3.6330   12.1650 O.2    15  GLN15      -0.2867
      5  CB         3.8410   -2.3450   13.2400 C.3    15  GLN15       0.0367
      6  CG         2.9090   -2.0130   14.4130 C.3    15  GLN15       0.0905
      7  CD         1.5080   -2.5950   14.2340 C.2    15  GLN15       0.2608
      8  OE1        0.9550   -2.5950   13.1320 O.2    15  GLN15      -0.2717
      9  NE2        0.9260   -3.0790   15.3210 N.am   15  GLN15      -0.0878
     10  N          9.1390   -9.2940    8.1040 N.3    33  LEU33      -0.1245
     11  CA         9.7290   -8.0210    8.5180 C.3    33  LEU33       0.1561
     12  C         11.1880   -7.9170    8.0590 C.2    33  LEU33       0.2260
     13  O         11.9970   -8.7990    8.3360 O.2    33  LEU33      -0.2867
     14  CB         9.6740   -7.8900   10.0450 C.3    33  LEU33       0.0270
     15  CG        10.2720   -6.5960   10.5990 C.3    33  LEU33       0.0019
     16  CD1        9.2260   -5.4890   10.5750 C.3    33  LEU33       0.0001
     17  CD2       10.7640   -6.8270   12.0050 C.3    33  LEU33       0.0001
     18  N         14.6180   -6.7400    8.5840 N.3    35  ASP35      -0.1239
     19  CA        15.4070   -6.2480    9.7140 C.3    35  ASP35       0.1674
     20  C         16.9250   -6.2230    9.4900 C.2    35  ASP35       0.2266
     21  O         17.5760   -7.2620    9.5350 O.2    35  ASP35      -0.2867
     22  CB        15.0850   -7.1150   10.9420 C.3    35  ASP35       0.1410
     23  CG        15.5660   -6.5100   12.2470 C.2    35  ASP35       0.3668
     24  OD1       16.6560   -5.9300   12.2770 O.co2  35  ASP35      -0.2456
     25  OD2       14.8580   -6.6300   13.2590 O.co2  35  ASP35      -0.2456
     26  N         18.9140   -5.1300   11.4770 N.3    37  GLY37      -0.1210
     27  CA        19.4990   -5.1140   12.8030 C.3    37  GLY37       0.1956
     28  C         19.5330   -6.4620   13.4890 C.2    37  GLY37       0.2613
     29  O         19.6900   -6.5390   14.7110 O.2    37  GLY37      -0.2717
     30  N         19.3570   -7.5210   12.7110 N.am   38  SER38      -0.1938
     31  CA        19.4040   -8.8860   13.2220 C.3    38  SER38       0.2055
     32  C         19.8390   -9.7730   12.0640 C.2    38  SER38       0.2644
     33  O         19.8740   -9.3240   10.9140 O.2    38  SER38      -0.2714
     34  CB        18.0510   -9.3420   13.8020 C.3    38  SER38       0.2130
     35  OG        16.9860   -9.2320   12.8750 O.3    38  SER38      -0.2179
     36  N         20.1480  -11.0320   12.3600 N.am   39  SER39      -0.1935
     37  CA        20.6630  -11.9230   11.3350 C.3    39  SER39       0.2055
     38  C         20.0120  -13.2890   11.1380 C.2    39  SER39       0.2643
     39  O         20.5550  -14.1340   10.4290 O.2    39  SER39      -0.2714
     40  CB        22.1560  -12.1030   11.5940 C.3    39  SER39       0.2130
     41  OG        22.7680  -10.8380   11.7710 O.3    39  SER39      -0.2179
     42  N         18.8580  -13.5210   11.7450 N.am   40  ASN40      -0.1971
     43  CA        18.1990  -14.8090   11.5720 C.3    40  ASN40       0.1688
     44  C         16.9690  -14.7460   10.6830 C.2    40  ASN40       0.2292
     45  O         16.2780  -13.7310   10.6370 O.2    40  ASN40      -0.2864
     46  CB        17.7460  -15.3880   12.9160 C.3    40  ASN40       0.1181
     47  CG        18.8750  -15.9860   13.7100 C.2    40  ASN40       0.2629
     48  OD1       19.6620  -15.2690   14.3270 O.2    40  ASN40      -0.2716
     49  ND2       18.9640  -17.3170   13.7010 N.am   40  ASN40      -0.0877
     50  N         16.0560  -18.0190   21.9780 N.3    72  VAL72      -0.1245
     51  CA        16.4840  -16.6300   21.9270 C.3    72  VAL72       0.1561
     52  C         15.6920  -15.7100   22.8520 C.2    72  VAL72       0.2260
     53  O         14.6390  -15.1940   22.4920 O.2    72  VAL72      -0.2867
     54  CB        16.4150  -16.0820   20.4880 C.3    72  VAL72       0.0252
     55  CG1       17.0440  -14.7080   20.4330 C.3    72  VAL72       0.0019
     56  CG2       17.1230  -17.0370   19.5350 C.3    72  VAL72       0.0019
     57  N         15.2300  -12.3030   25.5240 N.3    74  TYR74      -0.1241
     58  CA        15.5830  -10.8970   25.5820 C.3    74  TYR74       0.1605
     59  C         14.7310  -10.2440   26.6460 C.2    74  TYR74       0.2264
     60  O         13.6790  -10.7590   27.0210 O.2    74  TYR74      -0.2867
     61  CB        15.3870  -10.1910   24.2430 C.3    74  TYR74       0.0534
     62  CG        14.0790  -10.4800   23.5430 C.ar   74  TYR74      -0.0201
     63  CD1       13.9160  -11.6450   22.7990 C.ar   74  TYR74      -0.0009
     64  CD2       13.0040   -9.5920   23.6260 C.ar   74  TYR74      -0.0009
     65  CE1       12.7260  -11.9250   22.1560 C.ar   74  TYR74       0.0417
     66  CE2       11.8040   -9.8590   22.9850 C.ar   74  TYR74       0.0417
     67  CZ        11.6690  -11.0280   22.2520 C.ar   74  TYR74       0.1957
     68  OH        10.4720  -11.2880   21.6190 O.3    74  TYR74      -0.2866
     69  N         11.8330  -16.2330   21.6320 N.3    79  TRP79      -0.1241
     70  CA        11.2970  -17.0270   20.5690 C.3    79  TRP79       0.1605
     71  C         12.1880  -18.2500   20.5670 C.2    79  TRP79       0.2264
     72  O         13.4070  -18.1680   20.6130 O.2    79  TRP79      -0.2867
     73  CB        11.2770  -16.2810   19.2240 C.3    79  TRP79       0.0550
     74  CG        12.6020  -15.7840   18.6780 C.ar   79  TRP79       0.0003
     75  CD1       13.1470  -14.5410   18.8320 C.ar   79  TRP79       0.0946
     76  CD2       13.5130  -16.5180   17.8450 C.ar   79  TRP79       0.0152
     77  NE1       14.3260  -14.4490   18.1340 N.ar   79  TRP79      -0.2442
     78  CE2       14.5650  -15.6350   17.5110 C.ar   79  TRP79       0.0810
     79  CE3       13.5140  -17.8140   17.3260 C.ar   79  TRP79       0.0012
     80  CZ2       15.6380  -16.0360   16.7090 C.ar   79  TRP79       0.0191
     81  CZ3       14.5760  -18.2070   16.5300 C.ar   79  TRP79       0.0001
     82  CH2       15.6180  -17.3130   16.2120 C.ar   79  TRP79       0.0015
     83  N          6.9030  -11.4680   21.0380 N.3   111  PHE111     -0.1241
     84  CA         7.7360  -11.4190   19.8490 C.3   111  PHE111      0.1605
     85  C          6.8960  -10.8340   18.7280 C.2   111  PHE111      0.2264
     86  O          7.2390   -9.8060   18.1450 O.2   111  PHE111     -0.2867
     87  CB         8.1970  -12.8220   19.4530 C.3   111  PHE111      0.0534
     88  CG         9.0010  -12.8550   18.1780 C.ar  111  PHE111     -0.0203
     89  CD1       10.2970  -12.3520   18.1440 C.ar  111  PHE111     -0.0042
     90  CD2        8.4440  -13.3470   17.0020 C.ar  111  PHE111     -0.0042
     91  CE1       11.0250  -12.3300   16.9560 C.ar  111  PHE111     -0.0003
     92  CE2        9.1650  -13.3270   15.8090 C.ar  111  PHE111     -0.0003
     93  CZ        10.4590  -12.8180   15.7890 C.ar  111  PHE111     -0.0000
     94  N          3.6510   -9.0680   16.9120 N.3   113  ILE113     -0.1245
     95  CA         2.8600   -7.8850   17.2270 C.3   113  ILE113      0.1561
     96  C          1.4150   -8.0200   16.7660 C.2   113  ILE113      0.2260
     97  O          1.1340   -8.5360   15.6770 O.2   113  ILE113     -0.2867
     98  CB         3.4910   -6.6090   16.6020 C.3   113  ILE113      0.0252
     99  CG1        4.7250   -6.1900   17.4120 C.3   113  ILE113      0.0019
    100  CG2        2.4740   -5.4740   16.5610 C.3   113  ILE113      0.0019
    101  CD1        6.0380   -6.2950   16.6630 C.3   113  ILE113      0.0001
    102  N          2.9030   -9.3040    9.5850 N.3   118  TRP118     -0.1241
    103  CA         4.0870  -10.0650    9.1810 C.3   118  TRP118      0.1605
    104  C          4.1050  -11.3060   10.0520 C.2   118  TRP118      0.2264
    105  O          3.6810  -11.2600   11.2040 O.2   118  TRP118     -0.2867
    106  CB         5.4010   -9.2640    9.3170 C.3   118  TRP118      0.0550
    107  CG         5.6280   -8.5040   10.5940 C.ar  118  TRP118      0.0003
    108  CD1        5.2980   -7.2020   10.8430 C.ar  118  TRP118      0.0946
    109  CD2        6.2500   -8.9950   11.7880 C.ar  118  TRP118      0.0152
    110  NE1        5.6760   -6.8500   12.1170 N.ar  118  TRP118     -0.2442
    111  CE2        6.2600   -7.9320   12.7210 C.ar  118  TRP118      0.0810
    112  CE3        6.7960  -10.2320   12.1630 C.ar  118  TRP118      0.0012
    113  CZ2        6.7980   -8.0660   14.0070 C.ar  118  TRP118      0.0191
    114  CZ3        7.3340  -10.3690   13.4450 C.ar  118  TRP118      0.0001
    115  CH2        7.3270   -9.2910   14.3500 C.ar  118  TRP118      0.0015
    116  N         10.5510  -12.9300   10.4400 N.3   121  ILE121     -0.1245
    117  CA        11.5310  -11.8690   10.3930 C.3   121  ILE121      0.1561
    118  C         12.7710  -12.2360    9.5730 C.2   121  ILE121      0.2260
    119  O         13.3550  -13.3100    9.7210 O.2   121  ILE121     -0.2867
    120  CB        11.8740  -11.4710   11.8450 C.3   121  ILE121      0.0252
    121  CG1       11.2510  -10.1160   12.1390 C.3   121  ILE121      0.0019
    122  CG2       13.3670  -11.4860   12.1000 C.3   121  ILE121      0.0019
    123  CD1       11.3020   -9.7680   13.5800 C.3   121  ILE121      0.0001
    124  N         26.2750  -11.8570   14.7240 N.3   129  ILE129     -0.1245
    125  CA        25.1900  -11.8710   15.6940 C.3   129  ILE129      0.1561
    126  C         24.0430  -12.8570   15.4620 C.2   129  ILE129      0.2260
    127  O         23.0060  -12.7750   16.1220 O.2   129  ILE129     -0.2867
    128  CB        24.6150  -10.4520   15.8530 C.3   129  ILE129      0.0252
    129  CG1       24.2970   -9.8670   14.4760 C.3   129  ILE129      0.0019
    130  CG2       25.6260   -9.5700   16.5890 C.3   129  ILE129      0.0019
    131  CD1       23.3330   -8.7040   14.5040 C.3   129  ILE129      0.0001
    132  N         21.8700  -16.3090   15.6180 N.3   131  ARG131     -0.1245
    133  CA        21.6280  -17.2980   16.6710 C.3   131  ARG131      0.1563
    134  C         21.5620  -18.6750   16.0150 C.2   131  ARG131      0.2260
    135  O         21.0600  -18.8210   14.9060 O.2   131  ARG131     -0.2867
    136  CB        20.3550  -16.9940   17.4390 C.3   131  ARG131      0.0307
    137  CG        20.3070  -15.6240   18.0900 C.3   131  ARG131      0.0489
    138  CD        21.5650  -15.3540   18.9120 C.3   131  ARG131      0.2205
    139  NE        21.5000  -14.0550   19.5770 N.pl3 131  ARG131     -0.0865
    140  CZ        20.8280  -13.8210   20.6990 C.cat 131  ARG131      0.5346
    141  NH1       20.8200  -12.6030   21.2260 N.pl3 131  ARG131      0.1354
    142  NH2       20.1780  -14.8080   21.3040 N.pl3 131  ARG131      0.1354
    143  N         26.6610   -5.9620   13.0090 N.3   195  TYR195     -0.1241
    144  CA        25.4670   -5.1460   12.8200 C.3   195  TYR195      0.1605
    145  C         25.9400   -4.2770   11.6600 C.2   195  TYR195      0.2264
    146  O         27.0830   -4.3860   11.2340 O.2   195  TYR195     -0.2867
    147  CB        25.2080   -4.2300   14.0230 C.3   195  TYR195      0.0534
    148  CG        24.6590   -4.9160   15.2530 C.ar  195  TYR195     -0.0201
    149  CD1       23.2950   -5.1590   15.3830 C.ar  195  TYR195     -0.0009
    150  CD2       25.5080   -5.3440   16.2810 C.ar  195  TYR195     -0.0009
    151  CE1       22.7840   -5.8140   16.4990 C.ar  195  TYR195      0.0417
    152  CE2       25.0090   -5.9990   17.4010 C.ar  195  TYR195      0.0417
    153  CZ        23.6430   -6.2330   17.5020 C.ar  195  TYR195      0.1957
    154  OH        23.1200   -6.9100   18.5860 O.3   195  TYR195     -0.2866
    155  N         24.2310    2.0000   14.8530 N.3   223  ILE223     -0.1245
    156  CA        23.7960    1.1100   13.7980 C.3   223  ILE223      0.1561
    157  C         22.6450    1.6440   12.9390 C.2   223  ILE223      0.2260
    158  O         21.8760    2.5190   13.3500 O.2   223  ILE223     -0.2867
    159  CB        23.3660   -0.2690   14.3610 C.3   223  ILE223      0.0252
    160  CG1       22.0990   -0.1110   15.2100 C.3   223  ILE223      0.0019
    161  CG2       24.5060   -0.8820   15.1530 C.3   223  ILE223      0.0019
    162  CD1       21.3500   -1.4030   15.4820 C.3   223  ILE223      0.0001
    163  N         19.4390    0.3890   11.5150 N.3   225  ASP225     -0.1239
    164  CA        18.5100   -0.7160   11.6760 C.3   225  ASP225      0.1674
    165  C         17.0610   -0.4370   11.2970 C.2   225  ASP225      0.2266
    166  O         16.3450    0.2800   11.9860 O.2   225  ASP225     -0.2867
    167  CB        18.6060   -1.2140   13.1130 C.3   225  ASP225      0.1410
    168  CG        17.5270   -2.1850   13.4660 C.2   225  ASP225      0.3668
    169  OD1       17.1310   -2.9880   12.5980 O.co2 225  ASP225     -0.2456
    170  OD2       17.0830   -2.1530   14.6310 O.co2 225  ASP225     -0.2456
    171  N         14.7030   -2.4630   11.4370 N.3   227  GLY227     -0.1210
    172  CA        13.8190   -3.1400   12.3710 C.3   227  GLY227      0.1956
    173  C         13.4670   -2.3370   13.6150 C.2   227  GLY227      0.2612
    174  O         12.7650   -2.8290   14.5000 O.2   227  GLY227     -0.2717
    175  N         13.9710   -1.1080   13.6900 N.am  228  THR228     -0.1952
    176  CA        13.6910   -0.2130   14.8090 C.3   228  THR228      0.1897
    177  C         12.9850    1.0230   14.2590 C.2   228  THR228      0.2313
    178  O         13.3920    1.5770   13.2410 O.2   228  THR228     -0.2863
    179  CB        14.9870    0.2440   15.5390 C.3   228  THR228      0.1794
    180  OG1       15.5780   -0.8680   16.2130 O.3   228  THR228     -0.2208
    181  CG2       14.6760    1.3230   16.5740 C.3   228  THR228      0.0378
@<TRIPOS>BOND
     1    12    13    2
     2    12    11    1
     3    10    11    1
     4    11    14    1
     5    18    19    1
     6   103   106    1
     7   103   102    1
     8   103   104    1
     9   106   107    1
    10    20    21    2
    11    20    19    1
    12   118   119    2
    13   118   117    1
    14    19    22    1
    15    14    15    1
    16   104   105    2
    17   117   116    1
    18   117   120    1
    19    39    38    2
    20    16    15    1
    21   107   108   ar
    22   107   109   ar
    23    15    17    1
    24    45    44    2
    25    44    43    1
    26   108   110   ar
    27    33    32    2
    28    22    23    1
    29    38    37    1
    30    38    42   am
    31   146   145    2
    32   165   164    1
    33   165   166    2
    34    37    40    1
    35    37    36    1
    36   171   172    1
    37    26    27    1
    38   163   164    1
    39    43    42    1
    40    43    46    1
    41    40    41    1
    42   145   144    1
    43   164   167    1
    44   109   112   ar
    45   109   111   ar
    46   120   122    1
    47   120   121    1
    48    32    36   am
    49    32    31    1
    50   110   111   ar
    51   121   123    1
    52   112   114   ar
    53     4     3    2
    54    23    24   ar
    55    23    25   ar
    56     3     2    1
    57   172   173    1
    58   169   168   ar
    59    30    31    1
    60    30    28   am
    61   111   113   ar
    62    27    28    1
    63   144   143    1
    64   144   147    1
    65    35    34    1
    66    46    47    1
    67   157   158    2
    68   157   156    1
    69   167   168    1
    70     8     7    2
    71     1     2    1
    72    31    34    1
    73     5     2    1
    74     5     6    1
    75   178   177    2
    76   114   115   ar
    77   168   170   ar
    78    28    29    2
    79   173   175   am
    80   173   174    2
    81   175   176    1
    82    49    47   am
    83    47    48    2
    84   156   159    1
    85   156   155    1
    86   113   115   ar
    87   147   148    1
    88     7     6    1
    89     7     9   am
    90   177   176    1
    91   159   161    1
    92   159   160    1
    93   129   131    1
    94   129   128    1
    95   124   125    1
    96   176   179    1
    97   135   134    2
    98   160   162    1
    99   148   149   ar
   100   148   150   ar
   101   149   151   ar
   102   126   125    1
   103   126   127    2
   104   179   180    1
   105   179   181    1
   106   132   133    1
   107    97    96    2
   108   125   128    1
   109    93    92   ar
   110    93    91   ar
   111    92    90   ar
   112   128   130    1
   113   134   133    1
   114    82    81   ar
   115    82    80   ar
   116   150   152   ar
   117   151   153   ar
   118    81    79   ar
   119   100    98    1
   120    98    95    1
   121    98    99    1
   122   101    99    1
   123   133   136    1
   124    80    78   ar
   125    96    95    1
   126    94    95    1
   127    91    89   ar
   128    90    88   ar
   129    79    76   ar
   130   152   153   ar
   131   136   137    1
   132   153   154    1
   133    78    76   ar
   134    78    77   ar
   135    76    74   ar
   136   137   138    1
   137    77    75   ar
   138    89    88   ar
   139    86    85    2
   140    88    87    1
   141    74    75   ar
   142    74    73    1
   143    85    84    1
   144   138   139    1
   145    73    70    1
   146    87    84    1
   147    56    54    1
   148   139   140    2
   149    84    83    1
   150    55    54    1
   151    54    51    1
   152    71    70    1
   153    71    72    2
   154    70    69    1
   155   140   141    1
   156   140   142    1
   157    68    67    1
   158    51    50    1
   159    51    52    1
   160    65    67   ar
   161    65    63   ar
   162    67    66   ar
   163    53    52    2
   164    63    62   ar
   165    66    64   ar
   166    62    64   ar
   167    62    61    1
   168    61    58    1
   169    57    58    1
   170    58    59    1
   171    59    60    2
