@<TRIPOS>MOLECULE
tmp/2qu3A00.pdb
 211 202 0 0 0
SMALL
GASTEIGER

@<TRIPOS>ATOM
      1  N          4.9090    2.0170   12.6940 N.3    13  GLY13      -0.1210
      2  CA         5.3570    1.5530   13.9870 C.3    13  GLY13       0.1956
      3  C          5.3480    0.0470   14.1790 C.2    13  GLY13       0.2612
      4  O          5.7300   -0.4310   15.2390 O.2    13  GLY13      -0.2717
      5  N          4.9150   -0.7090   13.1770 N.am   14  GLN14      -0.1965
      6  CA         4.8910   -2.1580   13.3250 C.3    14  GLN14       0.1733
      7  C          5.8270   -2.8380   12.3390 C.2    14  GLN14       0.2616
      8  O          5.7770   -4.0510   12.1550 O.2    14  GLN14      -0.2715
      9  CB         3.4640   -2.6890   13.1780 C.3    14  GLN14       0.0408
     10  CG         2.5110   -2.1360   14.2290 C.3    14  GLN14       0.0908
     11  CD         1.1780   -2.8420   14.2230 C.2    14  GLN14       0.2608
     12  OE1        0.5830   -3.0510   13.1710 O.2    14  GLN14      -0.2717
     13  NE2        0.6970   -3.2090   15.4040 N.am   14  GLN14      -0.0878
     14  N          6.6780   -2.0310   11.7120 N.am   15  GLY15      -0.1955
     15  CA         7.6710   -2.5380   10.7840 C.3    15  GLY15       0.1869
     16  C          7.2470   -2.7770    9.3520 C.2    15  GLY15       0.2309
     17  O          6.0600   -2.8640    9.0460 O.2    15  GLY15      -0.2863
     18  N          8.9840   -9.5440    8.1940 N.3    32  LEU32      -0.1245
     19  CA         9.5650   -8.2780    8.6030 C.3    32  LEU32       0.1561
     20  C         10.9830   -8.1490    8.0570 C.2    32  LEU32       0.2260
     21  O         11.8100   -9.0460    8.2340 O.2    32  LEU32      -0.2867
     22  CB         9.5980   -8.1900   10.1250 C.3    32  LEU32       0.0270
     23  CG        10.2130   -6.9150   10.6970 C.3    32  LEU32       0.0019
     24  CD1        9.3220   -5.7250   10.3720 C.3    32  LEU32       0.0001
     25  CD2       10.3700   -7.0670   12.1950 C.3    32  LEU32       0.0001
     26  N         14.3180   -6.8910    8.5300 N.3    34  ASP34      -0.1239
     27  CA        15.0910   -6.3980    9.6600 C.3    34  ASP34       0.1674
     28  C         16.6140   -6.3970    9.4930 C.2    34  ASP34       0.2266
     29  O         17.2610   -7.4460    9.5590 O.2    34  ASP34      -0.2867
     30  CB        14.6890   -7.2220   10.8860 C.3    34  ASP34       0.1410
     31  CG        15.3620   -6.7590   12.1500 C.2    34  ASP34       0.3668
     32  OD1       15.7990   -5.5860   12.2090 O.co2  34  ASP34      -0.2456
     33  OD2       15.4360   -7.5680   13.0950 O.co2  34  ASP34      -0.2456
     34  N         18.5070   -5.2500   11.5420 N.3    36  GLY36      -0.1210
     35  CA        19.0490   -5.2570   12.8880 C.3    36  GLY36       0.1956
     36  C         19.2050   -6.6400   13.4960 C.2    36  GLY36       0.2613
     37  O         19.5470   -6.7660   14.6720 O.2    36  GLY36      -0.2717
     38  N         18.9330   -7.6780   12.7130 N.am   37  SER37      -0.1938
     39  CA        19.0800   -9.0480   13.1960 C.3    37  SER37       0.2055
     40  C         19.5210   -9.9060   12.0260 C.2    37  SER37       0.2644
     41  O         19.5330   -9.4480   10.8750 O.2    37  SER37      -0.2714
     42  CB        17.7810   -9.5850   13.8150 C.3    37  SER37       0.2130
     43  OG        16.7270   -9.6550   12.8780 O.3    37  SER37      -0.2179
     44  N         19.8850  -11.1500   12.3150 N.am   38  SER38      -0.1935
     45  CA        20.4030  -12.0140   11.2790 C.3    38  SER38       0.2055
     46  C         19.7400  -13.3670   11.0860 C.2    38  SER38       0.2643
     47  O         20.2640  -14.2070   10.3630 O.2    38  SER38      -0.2714
     48  CB        21.8980  -12.2000   11.5210 C.3    38  SER38       0.2130
     49  OG        22.5140  -10.9350   11.6640 O.3    38  SER38      -0.2179
     50  N         18.5940  -13.5910   11.7120 N.am   39  ASN39      -0.1971
     51  CA        17.9220  -14.8720   11.5320 C.3    39  ASN39       0.1688
     52  C         16.7010  -14.7730   10.6560 C.2    39  ASN39       0.2292
     53  O         16.0230  -13.7470   10.6290 O.2    39  ASN39      -0.2864
     54  CB        17.4630  -15.4620   12.8640 C.3    39  ASN39       0.1181
     55  CG        18.5910  -16.0540   13.6530 C.2    39  ASN39       0.2629
     56  OD1       19.4370  -15.3290   14.1700 O.2    39  ASN39      -0.2716
     57  ND2       18.6170  -17.3870   13.7490 N.am   39  ASN39      -0.0877
     58  N         15.7130  -17.7400   22.0580 N.3    71  VAL71      -0.1245
     59  CA        16.0900  -16.3410   22.0320 C.3    71  VAL71       0.1561
     60  C         15.3410  -15.4900   23.0390 C.2    71  VAL71       0.2260
     61  O         14.2270  -15.0380   22.7840 O.2    71  VAL71      -0.2867
     62  CB        15.8780  -15.7430   20.6310 C.3    71  VAL71       0.0252
     63  CG1       16.5270  -14.3660   20.5440 C.3    71  VAL71       0.0019
     64  CG2       16.4550  -16.6750   19.5890 C.3    71  VAL71       0.0019
     65  N         14.9720  -12.0860   25.4930 N.3    73  TYR73      -0.1241
     66  CA        15.3720  -10.6880   25.4810 C.3    73  TYR73       0.1605
     67  C         14.5140  -10.0620   26.5520 C.2    73  TYR73       0.2264
     68  O         13.6000  -10.7050   27.0580 O.2    73  TYR73      -0.2867
     69  CB        15.1320  -10.0620   24.1110 C.3    73  TYR73       0.0534
     70  CG        13.8130  -10.4300   23.5030 C.ar   73  TYR73      -0.0201
     71  CD1       12.7030   -9.6010   23.6380 C.ar   73  TYR73      -0.0009
     72  CD2       13.6710  -11.6190   22.7940 C.ar   73  TYR73      -0.0009
     73  CE1       11.4800   -9.9520   23.0750 C.ar   73  TYR73       0.0417
     74  CE2       12.4610  -11.9780   22.2330 C.ar   73  TYR73       0.0417
     75  CZ        11.3710  -11.1440   22.3740 C.ar   73  TYR73       0.1957
     76  OH        10.1790  -11.5110   21.8000 O.3    73  TYR73      -0.2866
     77  N         11.4680  -15.9010   22.0300 N.3    78  TRP78      -0.1241
     78  CA        10.9660  -16.7870   20.9970 C.3    78  TRP78       0.1605
     79  C         11.8710  -17.9900   21.0470 C.2    78  TRP78       0.2264
     80  O         13.0120  -17.9200   21.5140 O.2    78  TRP78      -0.2867
     81  CB        10.8930  -16.1710   19.5930 C.3    78  TRP78       0.0550
     82  CG        12.1570  -15.7850   18.9460 C.ar   78  TRP78       0.0003
     83  CD1       12.7430  -14.5580   18.9880 C.ar   78  TRP78       0.0946
     84  CD2       12.9400  -16.5760   18.0520 C.ar   78  TRP78       0.0152
     85  NE1       13.8540  -14.5340   18.1820 N.ar   78  TRP78      -0.2442
     86  CE2       14.0190  -15.7800   17.6170 C.ar   78  TRP78       0.0810
     87  CE3       12.8860  -17.9160   17.6280 C.ar   78  TRP78       0.0012
     88  CZ2       14.9750  -16.2270   16.7090 C.ar   78  TRP78       0.0191
     89  CZ3       13.8440  -18.3720   16.7300 C.ar   78  TRP78       0.0001
     90  CH2       14.8950  -17.5380   16.3080 C.ar   78  TRP78       0.0015
     91  N          5.6700  -11.8690   23.3490 N.3   109  LYS109     -0.1231
     92  CA         6.0240  -10.5110   22.9720 C.3   109  LYS109      0.1693
     93  C          6.9700  -10.5430   21.7820 C.2   109  LYS109      0.2592
     94  O          7.9070   -9.7660   21.7320 O.2   109  LYS109     -0.2718
     95  CB         6.6960   -9.7590   24.1080 C.3   109  LYS109      0.0285
     96  CG         5.8880   -9.7160   25.3930 C.3   109  LYS109      0.0035
     97  CD         5.2300   -8.3780   25.6160 C.3   109  LYS109      0.0206
     98  CE         4.5950   -7.8240   24.3600 C.3   109  LYS109      0.1093
     99  NZ         4.8870   -6.3670   24.2150 N.3   109  LYS109     -0.1314
    100  N          6.7730  -11.4820   20.8620 N.am  110  PHE110     -0.1976
    101  CA         7.6180  -11.4900   19.6860 C.3   110  PHE110      0.1639
    102  C          6.7520  -10.9030   18.5970 C.2   110  PHE110      0.2290
    103  O          7.0260   -9.8270   18.1010 O.2   110  PHE110     -0.2864
    104  CB         8.0940  -12.8950   19.3010 C.3   110  PHE110      0.0560
    105  CG         8.9310  -12.9100   18.0370 C.ar  110  PHE110     -0.0200
    106  CD1       10.1870  -12.3030   18.0070 C.ar  110  PHE110     -0.0042
    107  CD2        8.4490  -13.4950   16.8720 C.ar  110  PHE110     -0.0042
    108  CE1       10.9520  -12.2650   16.8350 C.ar  110  PHE110     -0.0003
    109  CE2        9.2040  -13.4660   15.6920 C.ar  110  PHE110     -0.0003
    110  CZ        10.4580  -12.8490   15.6750 C.ar  110  PHE110     -0.0000
    111  N          3.4560   -9.1640   16.7620 N.3   112  ILE112     -0.1245
    112  CA         2.6760   -7.9710   17.0700 C.3   112  ILE112      0.1561
    113  C          1.2590   -8.0610   16.5100 C.2   112  ILE112      0.2260
    114  O          1.0570   -8.3490   15.3240 O.2   112  ILE112     -0.2867
    115  CB         3.4180   -6.7390   16.5160 C.3   112  ILE112      0.0252
    116  CG1        4.7530   -6.6320   17.2410 C.3   112  ILE112      0.0019
    117  CG2        2.6000   -5.4680   16.7110 C.3   112  ILE112      0.0019
    118  CD1        5.7680   -5.7550   16.5380 C.3   112  ILE112      0.0001
    119  N          2.6000   -9.4500    9.7540 N.3   117  TRP117     -0.1241
    120  CA         3.7600  -10.2170    9.3120 C.3   117  TRP117      0.1605
    121  C          3.8570  -11.4540   10.1900 C.2   117  TRP117      0.2264
    122  O          3.4580  -11.4320   11.3570 O.2   117  TRP117     -0.2867
    123  CB         5.0720   -9.4030    9.3180 C.3   117  TRP117      0.0550
    124  CG         5.3890   -8.6030   10.5450 C.ar  117  TRP117      0.0003
    125  CD1        5.1740   -7.2650   10.7310 C.ar  117  TRP117      0.0946
    126  CD2        6.0360   -9.0740   11.7300 C.ar  117  TRP117      0.0152
    127  NE1        5.6550   -6.8740   11.9570 N.ar  117  TRP117     -0.2442
    128  CE2        6.1910   -7.9640   12.5910 C.ar  117  TRP117      0.0810
    129  CE3        6.5080  -10.3240   12.1470 C.ar  117  TRP117      0.0012
    130  CZ2        6.7910   -8.0690   13.8470 C.ar  117  TRP117      0.0191
    131  CZ3        7.1080  -10.4290   13.3960 C.ar  117  TRP117      0.0001
    132  CH2        7.2460   -9.3070   14.2290 C.ar  117  TRP117      0.0015
    133  N         10.4360  -12.9650   10.6270 N.3   120  ILE120     -0.1245
    134  CA        11.4420  -11.9450   10.4630 C.3   120  ILE120      0.1561
    135  C         12.5590  -12.3880    9.5480 C.2   120  ILE120      0.2260
    136  O         12.9930  -13.5270    9.5790 O.2   120  ILE120     -0.2867
    137  CB        12.0510  -11.5840   11.8210 C.3   120  ILE120      0.0252
    138  CG1       12.9040  -10.3310   11.6970 C.3   120  ILE120      0.0019
    139  CG2       12.9580  -12.7240   12.3040 C.3   120  ILE120      0.0019
    140  CD1       13.2360   -9.7110   13.0520 C.3   120  ILE120      0.0001
    141  N         26.0190  -12.1770   14.5840 N.3   128  ILE128     -0.1245
    142  CA        24.9680  -12.0470   15.5790 C.3   128  ILE128      0.1561
    143  C         23.8070  -13.0110   15.3650 C.2   128  ILE128      0.2260
    144  O         22.7370  -12.8500   15.9530 O.2   128  ILE128     -0.2867
    145  CB        24.4330  -10.6070   15.6280 C.3   128  ILE128      0.0252
    146  CG1       23.9580  -10.1780   14.2410 C.3   128  ILE128      0.0019
    147  CG2       25.5270   -9.6680   16.1080 C.3   128  ILE128      0.0019
    148  CD1       23.2900   -8.8100   14.2190 C.3   128  ILE128      0.0001
    149  N         21.5800  -16.3490   15.7410 N.3   130  ARG130     -0.1245
    150  CA        21.2790  -17.2610   16.8290 C.3   130  ARG130      0.1563
    151  C         21.0750  -18.6260   16.1780 C.2   130  ARG130      0.2260
    152  O         20.5020  -18.7190   15.0970 O.2   130  ARG130     -0.2867
    153  CB        19.9990  -16.8260   17.5580 C.3   130  ARG130      0.0307
    154  CG        20.0660  -15.4290   18.1630 C.3   130  ARG130      0.0489
    155  CD        21.3400  -15.2320   18.9730 C.3   130  ARG130      0.2205
    156  NE        21.2980  -14.0080   19.7620 N.pl3 130  ARG130     -0.0865
    157  CZ        20.5440  -13.8560   20.8440 C.cat 130  ARG130      0.5346
    158  NH1       20.5540  -12.7080   21.5070 N.pl3 130  ARG130      0.1354
    159  NH2       19.7920  -14.8630   21.2730 N.pl3 130  ARG130      0.1354
    160  N         26.2630   -6.1330   13.0640 N.3   194  TYR194     -0.1241
    161  CA        25.0590   -5.3420   12.8510 C.3   194  TYR194      0.1605
    162  C         25.5740   -4.4720   11.7130 C.2   194  TYR194      0.2264
    163  O         26.7580   -4.5360   11.3760 O.2   194  TYR194     -0.2867
    164  CB        24.7720   -4.4330   14.0500 C.3   194  TYR194      0.0534
    165  CG        24.2120   -5.1330   15.2630 C.ar  194  TYR194     -0.0201
    166  CD1       22.8490   -5.4210   15.3590 C.ar  194  TYR194     -0.0009
    167  CD2       25.0440   -5.5210   16.3110 C.ar  194  TYR194     -0.0009
    168  CE1       22.3320   -6.0800   16.4720 C.ar  194  TYR194      0.0417
    169  CE2       24.5390   -6.1780   17.4240 C.ar  194  TYR194      0.0417
    170  CZ        23.1830   -6.4530   17.4970 C.ar  194  TYR194      0.1957
    171  OH        22.6730   -7.0990   18.5960 O.3   194  TYR194     -0.2866
    172  N         23.9670    1.7380   14.7430 N.3   222  ILE222     -0.1245
    173  CA        23.5890    0.8150   13.6840 C.3   222  ILE222      0.1561
    174  C         22.4380    1.3450   12.8300 C.2   222  ILE222      0.2260
    175  O         21.7000    2.2380   13.2470 O.2   222  ILE222     -0.2867
    176  CB        23.1670   -0.5690   14.2550 C.3   222  ILE222      0.0252
    177  CG1       21.8410   -0.4520   15.0090 C.3   222  ILE222      0.0019
    178  CG2       24.2430   -1.1020   15.1910 C.3   222  ILE222      0.0019
    179  CD1       21.2350   -1.8140   15.3770 C.3   222  ILE222      0.0001
    180  N         19.0780    0.2670   11.3660 N.3   224  ASP224     -0.1225
    181  CA        18.1420   -0.8100   11.6150 C.3   224  ASP224      0.1805
    182  C         16.7010   -0.5810   11.1800 C.2   224  ASP224      0.2598
    183  O         15.9630    0.1580   11.8140 O.2   224  ASP224     -0.2718
    184  CB        18.2210   -1.1290   13.1120 C.3   224  ASP224      0.1424
    185  CG        17.2600   -2.1960   13.5410 C.2   224  ASP224      0.3668
    186  OD1       16.7250   -2.9130   12.6720 O.co2 224  ASP224     -0.2456
    187  OD2       17.0580   -2.3170   14.7660 O.co2 224  ASP224     -0.2456
    188  N         16.3090   -1.2350   10.0920 N.am  225  SER225     -0.1938
    189  CA        14.9490   -1.1220    9.5840 C.3   225  SER225      0.2055
    190  C         13.9860   -1.7840   10.5580 C.2   225  SER225      0.2644
    191  O         12.7920   -1.5290   10.5090 O.2   225  SER225     -0.2714
    192  CB        14.8300   -1.8040    8.2180 C.3   225  SER225      0.2130
    193  OG        15.0980   -3.1930    8.3160 O.3   225  SER225     -0.2179
    194  N         14.5140   -2.6260   11.4410 N.am  226  GLY226     -0.1939
    195  CA        13.6870   -3.3270   12.4160 C.3   226  GLY226      0.2014
    196  C         13.3020   -2.4930   13.6270 C.2   226  GLY226      0.2640
    197  O         12.6250   -2.9710   14.5460 O.2   226  GLY226     -0.2714
    198  N         13.7270   -1.2350   13.6280 N.am  227  THR227     -0.1936
    199  CA        13.4230   -0.3250   14.7300 C.3   227  THR227      0.2028
    200  C         12.6760    0.8800   14.1810 C.2   227  THR227      0.2642
    201  O         13.0330    1.4240   13.1440 O.2   227  THR227     -0.2714
    202  CB        14.7220    0.1390   15.4370 C.3   227  THR227      0.1808
    203  OG1       15.3570   -0.9920   16.0480 O.3   227  THR227     -0.2208
    204  CG2       14.4190    1.1870   16.5080 C.3   227  THR227      0.0379
    205  N         11.6270    1.2920   14.8740 N.am  228  THR228     -0.1950
    206  CA        10.8400    2.4330   14.4320 C.3   228  THR228      0.1897
    207  C         11.5200    3.7830   14.6730 C.2   228  THR228      0.2313
    208  O         11.7020    4.5760   13.7520 O.2   228  THR228     -0.2863
    209  CB         9.4750    2.4520   15.1440 C.3   228  THR228      0.1794
    210  OG1        8.7590    1.2560   14.8250 O.3   228  THR228     -0.2208
    211  CG2        8.6630    3.6540   14.7110 C.3   228  THR228      0.0378
@<TRIPOS>BOND
     1    20    21    2
     2    20    19    1
     3    18    19    1
     4   192   193    1
     5   192   189    1
     6    26    27    1
     7    19    22    1
     8    17    16    2
     9   120   123    1
    10   120   119    1
    11   120   121    1
    12   123   124    1
    13    16    15    1
    14    28    29    2
    15    28    27    1
    16   135   136    2
    17   135   134    1
    18   189   188    1
    19   189   190    1
    20    27    30    1
    21   188   182   am
    22    22    23    1
    23   121   122    2
    24    47    46    2
    25    24    23    1
    26   134   133    1
    27   134   137    1
    28   191   190    2
    29   124   125   ar
    30   124   126   ar
    31   190   194   am
    32    53    52    2
    33    52    51    1
    34    23    25    1
    35   125   127   ar
    36    15    14    1
    37    41    40    2
    38    30    31    1
    39    46    45    1
    40    46    50   am
    41   182   181    1
    42   182   183    2
    43    45    48    1
    44    45    44    1
    45   180   181    1
    46   163   162    2
    47   194   195    1
    48    48    49    1
    49    51    50    1
    50    51    54    1
    51    34    35    1
    52   181   184    1
    53   138   137    1
    54   138   140    1
    55    14     7   am
    56   162   161    1
    57   126   129   ar
    58   126   128   ar
    59   137   139    1
    60   127   128   ar
    61    40    44   am
    62    40    39    1
    63   129   131   ar
    64    31    32   ar
    65    31    33   ar
    66     8     7    2
    67     7     6    1
    68   195   196    1
    69   128   130   ar
    70   186   185   ar
    71     1     2    1
    72    38    39    1
    73    38    36   am
    74   174   175    2
    75   174   173    1
    76   161   160    1
    77   161   164    1
    78    54    55    1
    79    43    42    1
    80    35    36    1
    81   184   185    1
    82   201   200    2
    83    12    11    2
    84     5     6    1
    85     5     3   am
    86     9     6    1
    87     9    10    1
    88    39    42    1
    89   131   132   ar
    90    36    37    2
    91   185   187   ar
    92   196   198   am
    93   196   197    2
    94   198   199    1
    95    55    57   am
    96    55    56    2
    97   173   176    1
    98   173   172    1
    99   208   207    2
   100   130   132   ar
   101     2     3    1
   102   164   165    1
   103     3     4    2
   104   200   199    1
   105   200   205   am
   106   148   146    1
   107    11    10    1
   108    11    13   am
   109   146   145    1
   110   176   177    1
   111   176   178    1
   112   206   207    1
   113   206   205    1
   114   206   209    1
   115   141   142    1
   116   211   209    1
   117   199   202    1
   118   210   209    1
   119   177   179    1
   120   152   151    2
   121   165   166   ar
   122   165   167   ar
   123   114   113    2
   124   166   168   ar
   125   143   142    1
   126   143   144    2
   127   202   203    1
   128   202   204    1
   129   142   145    1
   130   145   147    1
   131   110   109   ar
   132   110   108   ar
   133   109   107   ar
   134   149   150    1
   135   151   150    1
   136    90    88   ar
   137    90    89   ar
   138   167   169   ar
   139   168   170   ar
   140   113   112    1
   141   115   117    1
   142   115   112    1
   143   115   116    1
   144   118   116    1
   145    88    86   ar
   146    89    87   ar
   147   111   112    1
   148   150   153    1
   149   108   106   ar
   150   107   105   ar
   151   169   170   ar
   152   170   171    1
   153   153   154    1
   154    86    84   ar
   155    86    85   ar
   156    87    84   ar
   157   106   105   ar
   158   105   104    1
   159    84    82   ar
   160   103   102    2
   161   154   155    1
   162    85    83   ar
   163   102   101    1
   164    82    83   ar
   165    82    81    1
   166   155   156    1
   167   104   101    1
   168    64    62    1
   169    81    78    1
   170   101   100    1
   171   156   157    2
   172    63    62    1
   173    62    59    1
   174   157   159    1
   175   157   158    1
   176   100    93   am
   177    78    79    1
   178    78    77    1
   179    79    80    2
   180    94    93    2
   181    93    92    1
   182    76    75    1
   183    59    58    1
   184    59    60    1
   185    74    75   ar
   186    74    72   ar
   187    75    73   ar
   188    61    60    2
   189    72    70   ar
   190    92    91    1
   191    92    95    1
   192    73    71   ar
   193    70    71   ar
   194    70    69    1
   195    95    96    1
   196    69    66    1
   197    99    98    1
   198    98    97    1
   199    96    97    1
   200    66    65    1
   201    66    67    1
   202    67    68    2
