@<TRIPOS>MOLECULE
tmp/2qu5A00.pdb
 207 194 0 0 0
SMALL
GASTEIGER

@<TRIPOS>ATOM
      1  N         76.0670   89.4190   43.5840 N.3    25  LEU25      -0.1245
      2  CA        75.3600   90.1320   42.5250 C.3    25  LEU25       0.1561
      3  C         75.5750   91.6320   42.6920 C.2    25  LEU25       0.2260
      4  O         75.2440   92.4220   41.8120 O.2    25  LEU25      -0.2867
      5  CB        73.8660   89.8090   42.5700 C.3    25  LEU25       0.0270
      6  CG        73.4770   88.3790   42.1910 C.3    25  LEU25       0.0019
      7  CD1       72.0280   88.1450   42.5190 C.3    25  LEU25       0.0001
      8  CD2       73.7230   88.1420   40.7210 C.3    25  LEU25       0.0001
      9  N         74.4320   91.4690   48.0840 N.3    33  VAL33      -0.1245
     10  CA        73.3130   90.9250   47.3380 C.3    33  VAL33       0.1561
     11  C         73.9500   89.7270   46.6470 C.2    33  VAL33       0.2260
     12  O         74.8360   89.8750   45.8070 O.2    33  VAL33      -0.2867
     13  CB        72.7850   91.9150   46.2970 C.3    33  VAL33       0.0252
     14  CG1       71.5430   91.3490   45.6270 C.3    33  VAL33       0.0019
     15  CG2       72.4720   93.2340   46.9660 C.3    33  VAL33       0.0019
     16  N         67.4940   85.7050   44.6920 N.3    51  ALA51      -0.1245
     17  CA        68.4530   86.7630   44.9660 C.3    51  ALA51       0.1562
     18  C         68.3020   87.0630   46.4460 C.2    51  ALA51       0.2260
     19  O         67.1800   87.1310   46.9590 O.2    51  ALA51      -0.2867
     20  CB        68.1360   87.9770   44.1520 C.3    51  ALA51       0.0290
     21  N         69.6490   89.5970   49.7050 N.3    53  LYS53      -0.1245
     22  CA        70.3700   90.7630   50.1880 C.3    53  LYS53       0.1561
     23  C         70.6410   90.4760   51.6490 C.2    53  LYS53       0.2260
     24  O         69.7290   90.0730   52.3810 O.2    53  LYS53      -0.2867
     25  CB        69.5320   92.0330   50.0740 C.3    53  LYS53       0.0271
     26  CG        70.2880   93.2620   50.5430 C.3    53  LYS53       0.0035
     27  CD        69.4130   94.4890   50.6030 C.3    53  LYS53       0.0206
     28  CE        68.9720   94.9340   49.2330 C.3    53  LYS53       0.1093
     29  NZ        68.3480   96.2800   49.3050 N.3    53  LYS53      -0.1314
     30  N         62.9530   97.5780   55.0490 N.3    70  GLU70      -0.1245
     31  CA        62.7800   97.2250   53.6500 C.3    70  GLU70       0.1567
     32  C         61.9120   95.9740   53.5600 C.2    70  GLU70       0.2260
     33  O         61.0140   95.8870   52.7190 O.2    70  GLU70      -0.2867
     34  CB        64.1420   96.9690   53.0030 C.3    70  GLU70       0.0388
     35  CG        64.0610   96.5220   51.5560 C.3    70  GLU70       0.1160
     36  CD        65.4150   96.1710   50.9760 C.2    70  GLU70       0.3649
     37  OE1       66.2990   97.0540   50.9710 O.co2  70  GLU70      -0.2457
     38  OE2       65.5900   95.0150   50.5260 O.co2  70  GLU70      -0.2457
     39  N         58.3980   97.0630   54.5880 N.3    73  ILE73      -0.1231
     40  CA        57.8080   97.8700   53.5180 C.3    73  ILE73       0.1692
     41  C         57.4190   97.0100   52.3120 C.2    73  ILE73       0.2591
     42  O         56.3300   97.1640   51.7650 O.2    73  ILE73      -0.2718
     43  CB        58.7780   98.9700   53.0190 C.3    73  ILE73       0.0266
     44  CG1       59.0740   99.9690   54.1420 C.3    73  ILE73       0.0019
     45  CG2       58.1760   99.6800   51.8130 C.3    73  ILE73       0.0020
     46  CD1       59.9810  101.1210   53.7360 C.3    73  ILE73       0.0001
     47  N         58.3180   96.1200   51.8920 N.am   74  LEU74      -0.1980
     48  CA        58.0480   95.2450   50.7540 C.3    74  LEU74       0.1596
     49  C         56.8180   94.4170   51.0200 C.2    74  LEU74       0.2287
     50  O         56.0480   94.1300   50.1040 O.2    74  LEU74      -0.2864
     51  CB        59.2280   94.3190   50.4860 C.3    74  LEU74       0.0297
     52  CG        60.3370   94.9210   49.6330 C.3    74  LEU74       0.0022
     53  CD1       61.4100   93.8800   49.3960 C.3    74  LEU74       0.0001
     54  CD2       59.7520   95.3960   48.3140 C.3    74  LEU74       0.0001
     55  N         53.7420   96.9210   50.9400 N.3    77  ILE77      -0.1245
     56  CA        53.4150   97.2630   49.5600 C.3    77  ILE77       0.1561
     57  C         52.5790   96.1690   48.9320 C.2    77  ILE77       0.2260
     58  O         51.5720   96.4330   48.2660 O.2    77  ILE77      -0.2867
     59  CB        54.6800   97.4170   48.6910 C.3    77  ILE77       0.0252
     60  CG1       55.5530   98.5570   49.2240 C.3    77  ILE77       0.0019
     61  CG2       54.2790   97.6510   47.2340 C.3    77  ILE77       0.0019
     62  CD1       56.9150   98.6440   48.5620 C.3    77  ILE77       0.0001
     63  N         57.2950   95.2120   40.4950 N.3    83  VAL83      -0.1231
     64  CA        58.0630   95.3950   41.7120 C.3    83  VAL83       0.1692
     65  C         58.6530   94.0190   41.9630 C.2    83  VAL83       0.2591
     66  O         57.9180   93.0300   42.0270 O.2    83  VAL83      -0.2718
     67  CB        57.1910   95.8020   42.9180 C.3    83  VAL83       0.0266
     68  CG1       58.0850   96.1050   44.1090 C.3    83  VAL83       0.0020
     69  CG2       56.3390   97.0170   42.5660 C.3    83  VAL83       0.0020
     70  N         59.9760   93.9520   42.0760 N.am   84  VAL84      -0.1980
     71  CA        60.6480   92.6810   42.3010 C.3    84  VAL84       0.1595
     72  C         59.9120   91.9310   43.4230 C.2    84  VAL84       0.2287
     73  O         59.6820   92.4790   44.5050 O.2    84  VAL84      -0.2864
     74  CB        62.1380   92.9180   42.6460 C.3    84  VAL84       0.0276
     75  CG1       62.2740   93.3560   44.0770 C.3    84  VAL84       0.0022
     76  CG2       62.9510   91.6740   42.3490 C.3    84  VAL84       0.0022
     77  N         67.0260   89.0230   53.2350 N.3    99  VAL99      -0.1245
     78  CA        65.7630   89.2040   52.5250 C.3    99  VAL99       0.1561
     79  C         65.9400   88.4360   51.2150 C.2    99  VAL99       0.2260
     80  O         66.9880   88.5310   50.5750 O.2    99  VAL99      -0.2867
     81  CB        65.4700   90.6860   52.2210 C.3    99  VAL99       0.0252
     82  CG1       64.1570   90.8010   51.4480 C.3    99  VAL99       0.0019
     83  CG2       65.3890   91.4800   53.5190 C.3    99  VAL99       0.0019
     84  N         64.4010   87.5780   47.3900 N.3   101  THR101     -0.1203
     85  CA        63.5040   87.9440   46.3000 C.3   101  THR101      0.1994
     86  C         63.7100   87.0200   45.1200 C.2   101  THR101      0.2618
     87  O         64.6580   86.2360   45.0830 O.2   101  THR101     -0.2717
     88  CB        63.7680   89.3830   45.7950 C.3   101  THR101      0.1784
     89  OG1       64.9210   89.3940   44.9410 O.3   101  THR101     -0.2211
     90  CG2       64.0220   90.3220   46.9650 C.3   101  THR101      0.0376
     91  N         62.8120   87.1270   44.1510 N.am  102  GLU102     -0.1965
     92  CA        62.9010   86.3400   42.9310 C.3   102  GLU102      0.1733
     93  C         64.1720   86.7840   42.2270 C.2   102  GLU102      0.2616
     94  O         64.6940   87.8630   42.4930 O.2   102  GLU102     -0.2715
     95  CB        61.7220   86.6430   42.0180 C.3   102  GLU102      0.0429
     96  CG        61.7030   88.0800   41.5750 C.3   102  GLU102      0.1163
     97  CD        60.6850   88.3400   40.4980 C.2   102  GLU102      0.3649
     98  OE1       60.7610   87.6680   39.4410 O.co2 102  GLU102     -0.2457
     99  OE2       59.8150   89.2180   40.7070 O.co2 102  GLU102     -0.2457
    100  N         64.6630   85.9630   41.3160 N.am  103  PHE103     -0.1960
    101  CA        65.8690   86.3020   40.5830 C.3   103  PHE103      0.1771
    102  C         65.4680   86.8450   39.2220 C.2   103  PHE103      0.2620
    103  O         64.5780   86.3040   38.5770 O.2   103  PHE103     -0.2715
    104  CB        66.7210   85.0570   40.3960 C.3   103  PHE103      0.0574
    105  CG        68.0580   85.3230   39.7850 C.ar  103  PHE103     -0.0200
    106  CD1       69.0290   86.0350   40.4860 C.ar  103  PHE103     -0.0042
    107  CD2       68.3710   84.8230   38.5230 C.ar  103  PHE103     -0.0042
    108  CE1       70.2940   86.2390   39.9400 C.ar  103  PHE103     -0.0003
    109  CE2       69.6340   85.0230   37.9710 C.ar  103  PHE103     -0.0003
    110  CZ        70.5950   85.7290   38.6810 C.ar  103  PHE103     -0.0000
    111  N         66.1040   87.9220   38.7860 N.am  104  CYS104     -0.1954
    112  CA        65.7810   88.4700   37.4820 C.3   104  CYS104      0.1843
    113  C         66.9710   88.2260   36.5790 C.2   104  CYS104      0.2625
    114  O         68.0240   88.8390   36.7170 O.2   104  CYS104     -0.2714
    115  CB        65.4190   89.9480   37.5960 C.3   104  CYS104      0.0997
    116  SG        63.7920   90.1720   38.3870 S.3   104  CYS104     -0.0797
    117  N         66.7700   87.2800   35.6700 N.am  105  LYS105     -0.1977
    118  CA        67.7690   86.8020   34.7210 C.3   105  LYS105      0.1596
    119  C         68.7010   87.7950   34.0580 C.2   105  LYS105      0.2287
    120  O         69.9120   87.6220   34.1000 O.2   105  LYS105     -0.2864
    121  CB        67.0700   85.9850   33.6320 C.3   105  LYS105      0.0298
    122  CG        68.0010   85.1770   32.7500 C.3   105  LYS105      0.0038
    123  CD        67.1990   84.3250   31.7770 C.3   105  LYS105      0.0206
    124  CE        68.1020   83.4150   30.9580 C.3   105  LYS105      0.1093
    125  NZ        67.3100   82.5510   30.0340 N.3   105  LYS105     -0.1314
    126  N         69.3670   90.9350   34.8380 N.3   107  GLY107     -0.1225
    127  CA        69.9200   91.9890   35.6750 C.3   107  GLY107      0.1811
    128  C         69.4510   93.4220   35.4800 C.2   107  GLY107      0.2280
    129  O         68.4140   93.6800   34.8600 O.2   107  GLY107     -0.2866
    130  N         53.4520  102.1700   43.9680 N.3   154  LEU154     -0.1245
    131  CA        54.1370  102.5130   45.2100 C.3   154  LEU154      0.1561
    132  C         53.4750  103.7210   45.8290 C.2   154  LEU154      0.2260
    133  O         53.3450  103.8160   47.0500 O.2   154  LEU154     -0.2867
    134  CB        55.6170  102.8140   44.9650 C.3   154  LEU154      0.0270
    135  CG        56.5850  101.7270   45.4310 C.3   154  LEU154      0.0019
    136  CD1       56.2410  100.4180   44.7520 C.3   154  LEU154      0.0001
    137  CD2       58.0020  102.1420   45.1080 C.3   154  LEU154      0.0001
    138  N         54.2130  104.7270   49.4310 N.3   159  CYS159     -0.1221
    139  CA        55.6450  104.4910   49.6540 C.3   159  CYS159      0.1808
    140  C         56.4580  105.2850   48.6470 C.2   159  CYS159      0.2601
    141  O         55.9550  105.6720   47.6020 O.2   159  CYS159     -0.2717
    142  CB        56.0100  103.0190   49.4670 C.3   159  CYS159      0.0970
    143  SG        55.2390  101.8690   50.5990 S.3   159  CYS159     -0.0800
    144  N         57.7170  105.5310   48.9710 N.am  160  ILE160     -0.1965
    145  CA        58.6100  106.2230   48.0560 C.3   160  ILE160      0.1727
    146  C         59.8200  105.3070   47.9060 C.2   160  ILE160      0.2616
    147  O         60.1760  104.5850   48.8350 O.2   160  ILE160     -0.2715
    148  CB        59.0790  107.6050   48.5880 C.3   160  ILE160      0.0290
    149  CG1       59.9940  107.4280   49.7920 C.3   160  ILE160      0.0022
    150  CG2       57.8860  108.4570   48.9680 C.3   160  ILE160      0.0023
    151  CD1       60.5510  108.7330   50.3050 C.3   160  ILE160      0.0001
    152  N         60.4480  105.3240   46.7390 N.am  161  HIS161     -0.1973
    153  CA        61.6040  104.4700   46.5070 C.3   161  HIS161      0.1656
    154  C         62.8680  105.0770   47.0970 C.2   161  HIS161      0.2291
    155  O         63.5710  104.4130   47.8510 O.2   161  HIS161     -0.2864
    156  CB        61.7720  104.2210   45.0050 C.3   161  HIS161      0.0771
    157  CG        62.8930  103.2910   44.6700 C.ar  161  HIS161      0.0820
    158  ND1       64.2160  103.6800   44.6980 N.ar  161  HIS161     -0.2267
    159  CD2       62.8900  101.9850   44.3190 C.ar  161  HIS161      0.1154
    160  CE1       64.9780  102.6520   44.3770 C.ar  161  HIS161      0.1986
    161  NE2       64.1980  101.6110   44.1430 N.ar  161  HIS161     -0.2212
    162  N         65.2000   96.0270   37.0510 N.3   170  LEU170     -0.1245
    163  CA        65.6610   94.7300   36.5770 C.3   170  LEU170      0.1561
    164  C         64.8620   94.2420   35.3870 C.2   170  LEU170      0.2260
    165  O         63.6380   94.3890   35.3550 O.2   170  LEU170     -0.2867
    166  CB        65.5400   93.6940   37.6890 C.3   170  LEU170      0.0270
    167  CG        66.3130   93.9750   38.9650 C.3   170  LEU170      0.0019
    168  CD1       65.7890   93.1040   40.0800 C.3   170  LEU170      0.0001
    169  CD2       67.7850   93.7380   38.7130 C.3   170  LEU170      0.0001
    170  N         61.0070   97.0890   39.4320 N.3   179  ILE179     -0.1231
    171  CA        61.6820   98.0660   40.2830 C.3   179  ILE179      0.1692
    172  C         62.3200   97.3340   41.4610 C.2   179  ILE179      0.2592
    173  O         61.6970   96.4480   42.0540 O.2   179  ILE179     -0.2718
    174  CB        60.6870   99.0860   40.8720 C.3   179  ILE179      0.0266
    175  CG1       60.1370   99.9850   39.7710 C.3   179  ILE179      0.0019
    176  CG2       61.3650   99.9000   41.9400 C.3   179  ILE179      0.0020
    177  CD1       58.9700  100.8210   40.2000 C.3   179  ILE179      0.0001
    178  N         63.5510   97.6990   41.8020 N.am  180  CYS180     -0.1956
    179  CA        64.2230   97.0800   42.9320 C.3   180  CYS180      0.1843
    180  C         65.1650   98.0800   43.5960 C.2   180  CYS180      0.2625
    181  O         65.1670   99.2630   43.2630 O.2   180  CYS180     -0.2714
    182  CB        65.0070   95.8420   42.4820 C.3   180  CYS180      0.0997
    183  SG        66.6150   96.1640   41.6530 S.3   180  CYS180     -0.0797
    184  N         65.9550   97.6030   44.5490 N.am  181  ASP181     -0.1957
    185  CA        66.9170   98.4550   45.2260 C.3   181  ASP181      0.1840
    186  C         68.1080   97.6200   45.6720 C.2   181  ASP181      0.2622
    187  O         67.9920   96.8080   46.5870 O.2   181  ASP181     -0.2715
    188  CB        66.2880   99.1360   46.4420 C.3   181  ASP181      0.1450
    189  CG        67.2080  100.1920   47.0600 C.2   181  ASP181      0.3671
    190  OD1       66.8740  100.7310   48.1410 O.co2 181  ASP181     -0.2456
    191  OD2       68.2660  100.4870   46.4610 O.co2 181  ASP181     -0.2456
    192  N         69.2460   97.8160   45.0080 N.am  182  PHE182     -0.1974
    193  CA        70.4750   97.0970   45.3370 C.3   182  PHE182      0.1639
    194  C         71.1330   97.7070   46.5530 C.2   182  PHE182      0.2290
    195  O         72.0190   97.1050   47.1550 O.2   182  PHE182     -0.2864
    196  CB        71.4800   97.1610   44.1890 C.3   182  PHE182      0.0560
    197  CG        71.2040   96.2010   43.0950 C.ar  182  PHE182     -0.0200
    198  CD1       70.3480   96.5360   42.0630 C.ar  182  PHE182     -0.0042
    199  CD2       71.8000   94.9480   43.0980 C.ar  182  PHE182     -0.0042
    200  CE1       70.0880   95.6290   41.0410 C.ar  182  PHE182     -0.0003
    201  CE2       71.5470   94.0400   42.0880 C.ar  182  PHE182     -0.0003
    202  CZ        70.6880   94.3800   41.0530 C.ar  182  PHE182     -0.0000
    203  N         68.2630  102.0280   51.1150 N.3   185  ALA185     -0.1245
    204  CA        67.6620  103.3540   51.3130 C.3   185  ALA185      0.1562
    205  C         66.9100  103.4870   52.6480 C.2   185  ALA185      0.2260
    206  O         65.7490  103.0790   52.7740 O.2   185  ALA185     -0.2867
    207  CB        66.7290  103.6820   50.1460 C.3   185  ALA185      0.0290
@<TRIPOS>BOND
     1   125   124    1
     2   124   123    1
     3   123   122    1
     4   122   121    1
     5   121   118    1
     6   119   120    2
     7   119   118    1
     8   118   117    1
     9   126   127    1
    10   129   128    2
    11   165   164    2
    12   164   163    1
    13   128   127    1
    14   117   113   am
    15   163   162    1
    16   163   166    1
    17   113   114    2
    18   113   112    1
    19   112   115    1
    20   112   111    1
    21   115   116    1
    22   166   167    1
    23   109   107   ar
    24   109   110   ar
    25   107   105   ar
    26   103   102    2
    27   110   108   ar
    28   169   167    1
    29   111   102   am
    30   167   168    1
    31   102   101    1
    32   170   171    1
    33    98    97   ar
    34   175   177    1
    35   175   174    1
    36   105   104    1
    37   105   106   ar
    38   108   106   ar
    39   171   174    1
    40   171   172    1
    41   104   101    1
    42    63    64    1
    43    97    99   ar
    44    97    96    1
    45   101   100    1
    46     8     6    1
    47   174   176    1
    48   200   202   ar
    49   200   198   ar
    50   202   201   ar
    51   100    93   am
    52   172   178   am
    53   172   173    2
    54    96    95    1
    55   183   182    1
    56    64    65    1
    57    64    67    1
    58   178   179    1
    59     4     3    2
    60    65    66    2
    61    65    70   am
    62    95    92    1
    63   198   197   ar
    64    70    71    1
    65   201   199   ar
    66     6     7    1
    67     6     5    1
    68    93    94    2
    69    93    92    1
    70    71    74    1
    71    71    72    1
    72    76    74    1
    73   182   179    1
    74     2     5    1
    75     2     3    1
    76     2     1    1
    77    69    67    1
    78    74    75    1
    79    67    68    1
    80    92    91    1
    81   179   180    1
    82   197   199   ar
    83   197   196    1
    84   181   180    2
    85    72    73    2
    86   180   184   am
    87   130   131    1
    88   161   159   ar
    89   161   160   ar
    90    91    86   am
    91    20    17    1
    92   196   193    1
    93   159   157   ar
    94   160   158   ar
    95   184   185    1
    96   157   158   ar
    97   157   156    1
    98    16    17    1
    99   136   135    1
   100    89    88    1
   101   134   131    1
   102   134   135    1
   103    17    18    1
   104   156   153    1
   105   192   193    1
   106   192   186   am
   107    87    86    2
   108   137   135    1
   109    86    85    1
   110   131   132    1
   111   185   186    1
   112   185   188    1
   113   193   194    1
   114    14    13    1
   115   186   187    2
   116    88    85    1
   117    88    90    1
   118    12    11    2
   119   132   133    2
   120    13    15    1
   121    13    10    1
   122    85    84    1
   123   188   189    1
   124    18    19    2
   125   191   189   ar
   126   153   152    1
   127   153   154    1
   128   194   195    2
   129    11    10    1
   130   152   146   am
   131   189   190   ar
   132   154   155    2
   133    61    59    1
   134    10     9    1
   135   141   140    2
   136   146   145    1
   137   146   147    2
   138   145   148    1
   139   145   144    1
   140    58    57    2
   141    54    52    1
   142    62    60    1
   143   148   150    1
   144   148   149    1
   145   140   144   am
   146   140   139    1
   147    59    60    1
   148    59    56    1
   149    57    56    1
   150    28    29    1
   151    28    27    1
   152    53    52    1
   153   138   139    1
   154   142   139    1
   155   142   143    1
   156    56    55    1
   157    52    51    1
   158    21    22    1
   159   149   151    1
   160    25    22    1
   161    25    26    1
   162    50    49    2
   163   207   204    1
   164    22    23    1
   165    51    48    1
   166    38    36   ar
   167    26    27    1
   168    80    79    2
   169    48    49    1
   170    48    47    1
   171    37    36   ar
   172    36    35    1
   173   203   204    1
   174    79    78    1
   175   204   205    1
   176    82    81    1
   177    35    34    1
   178    23    24    2
   179    42    41    2
   180    45    43    1
   181    47    41   am
   182    81    78    1
   183    81    83    1
   184    41    40    1
   185    78    77    1
   186   205   206    2
   187    33    32    2
   188    34    31    1
   189    43    40    1
   190    43    44    1
   191    40    39    1
   192    32    31    1
   193    31    30    1
   194    46    44    1
