@<TRIPOS>MOLECULE
tmp/2qu6B00.pdb
 213 201 0 0 0
SMALL
GASTEIGER

@<TRIPOS>ATOM
      1  N         26.6790   -0.3820   16.2840 N.3    19  LEU19      -0.1245
      2  CA        27.8490   -0.0330   17.0810 C.3    19  LEU19       0.1561
      3  C         28.1090   -1.1570   18.0690 C.2    19  LEU19       0.2260
      4  O         29.1740   -1.2370   18.6790 O.2    19  LEU19      -0.2867
      5  CB        27.5980    1.2610   17.8580 C.3    19  LEU19       0.0270
      6  CG        27.5360    2.5710   17.0800 C.3    19  LEU19       0.0019
      7  CD1       27.0920    3.6860   18.0110 C.3    19  LEU19       0.0001
      8  CD2       28.9030    2.8750   16.4850 C.3    19  LEU19       0.0001
      9  N         22.6970   -1.4020   19.9430 N.3    23  VAL23      -0.1245
     10  CA        23.1140   -0.0100   19.9270 C.3    23  VAL23       0.1561
     11  C         23.4870    0.3630   18.5090 C.2    23  VAL23       0.2260
     12  O         24.3640   -0.2550   17.9040 O.2    23  VAL23      -0.2867
     13  CB        24.3180    0.2370   20.8470 C.3    23  VAL23       0.0252
     14  CG1       24.8100    1.6690   20.6820 C.3    23  VAL23       0.0019
     15  CG2       23.9230   -0.0120   22.2910 C.3    23  VAL23       0.0019
     16  N         24.1400    7.9770   19.3770 N.3    41  ALA41      -0.1245
     17  CA        24.1280    6.5380   19.5990 C.3    41  ALA41       0.1562
     18  C         22.7370    6.1920   20.1130 C.2    41  ALA41       0.2260
     19  O         22.2380    6.8260   21.0370 O.2    41  ALA41      -0.2867
     20  CB        25.1770    6.1500   20.6200 C.3    41  ALA41       0.0290
     21  N         20.2100    3.1540   21.6070 N.3    43  LYS43      -0.1245
     22  CA        20.0980    1.8040   22.1370 C.3    43  LYS43       0.1561
     23  C         18.6380    1.4090   21.9860 C.2    43  LYS43       0.2260
     24  O         17.7450    2.1770   22.3380 O.2    43  LYS43      -0.2867
     25  CB        20.5010    1.7240   23.6140 C.3    43  LYS43       0.0271
     26  CG        20.3460    0.3060   24.1530 C.3    43  LYS43       0.0035
     27  CD        20.5030    0.1970   25.6550 C.3    43  LYS43       0.0206
     28  CE        21.9390    0.3560   26.0930 C.3    43  LYS43       0.1093
     29  NZ        22.0910   -0.0610   27.5190 N.3    43  LYS43      -0.1314
     30  N         15.9570    2.0990   32.4770 N.3    60  GLU60      -0.1245
     31  CA        17.2720    2.6870   32.2600 C.3    60  GLU60       0.1567
     32  C         17.0830    4.1430   31.8480 C.2    60  GLU60       0.2260
     33  O         17.8260    5.0210   32.2700 O.2    60  GLU60      -0.2867
     34  CB        18.0200    1.9300   31.1670 C.3    60  GLU60       0.0388
     35  CG        19.4510    2.3970   30.9910 C.3    60  GLU60       0.1160
     36  CD        20.1690    1.6650   29.8760 C.2    60  GLU60       0.3649
     37  OE1       20.1210    0.4180   29.8570 O.co2  60  GLU60      -0.2457
     38  OE2       20.7860    2.3380   29.0230 O.co2  60  GLU60      -0.2457
     39  N         16.0020    6.2340   34.9230 N.3    63  ILE63      -0.1231
     40  CA        17.1190    6.4410   35.8250 C.3    63  ILE63       0.1692
     41  C         18.1410    7.4360   35.2760 C.2    63  ILE63       0.2591
     42  O         18.7020    8.2300   36.0300 O.2    63  ILE63      -0.2718
     43  CB        17.7970    5.1050   36.1540 C.3    63  ILE63       0.0266
     44  CG1       16.7880    4.1900   36.8500 C.3    63  ILE63       0.0019
     45  CG2       18.9950    5.3350   37.0630 C.3    63  ILE63       0.0020
     46  CD1       17.3510    2.8600   37.2660 C.3    63  ILE63       0.0001
     47  N         18.3790    7.4000   33.9690 N.am   64  LEU64      -0.1980
     48  CA        19.3250    8.3280   33.3670 C.3    64  LEU64       0.1596
     49  C         18.7690    9.7390   33.4940 C.2    64  LEU64       0.2287
     50  O         19.5130   10.7030   33.6960 O.2    64  LEU64      -0.2864
     51  CB        19.5480    7.9960   31.8910 C.3    64  LEU64       0.0297
     52  CG        20.2690    6.6850   31.5960 C.3    64  LEU64       0.0022
     53  CD1       20.3730    6.4850   30.0930 C.3    64  LEU64       0.0001
     54  CD2       21.6500    6.7140   32.2350 C.3    64  LEU64       0.0001
     55  N         19.1910   10.6150   37.5440 N.3    67  ILE67      -0.1245
     56  CA        20.5270   10.9800   37.9970 C.3    67  ILE67       0.1561
     57  C         20.9620   12.3560   37.4990 C.2    67  ILE67       0.2260
     58  O         21.6330   13.1010   38.2160 O.2    67  ILE67      -0.2867
     59  CB        21.5820    9.9410   37.5480 C.3    67  ILE67       0.0252
     60  CG1       21.7800   10.0100   36.0380 C.3    67  ILE67       0.0019
     61  CG2       21.1290    8.5370   37.9100 C.3    67  ILE67       0.0019
     62  CD1       22.9370    9.1740   35.5600 C.3    67  ILE67       0.0001
     63  N         29.7920   10.9380   32.3350 N.3    73  VAL73      -0.1231
     64  CA        28.7870    9.9080   32.1420 C.3    73  VAL73       0.1692
     65  C         28.1650   10.2430   30.7960 C.2    73  VAL73       0.2591
     66  O         27.8360   11.4020   30.5440 O.2    73  VAL73      -0.2718
     67  CB        27.7030    9.9480   33.2360 C.3    73  VAL73       0.0266
     68  CG1       26.5880    8.9590   32.9060 C.3    73  VAL73       0.0020
     69  CG2       28.3240    9.6110   34.5900 C.3    73  VAL73       0.0020
     70  N         28.0320    9.2420   29.9280 N.am   74  VAL74      -0.1980
     71  CA        27.4560    9.4530   28.6040 C.3    74  VAL74       0.1595
     72  C         26.0900   10.1450   28.7180 C.2    74  VAL74       0.2287
     73  O         25.1530    9.6040   29.2970 O.2    74  VAL74      -0.2864
     74  CB        27.3180    8.1160   27.8570 C.3    74  VAL74       0.0276
     75  CG1       26.2900    7.2340   28.5420 C.3    74  VAL74       0.0022
     76  CG2       26.9530    8.3690   26.4010 C.3    74  VAL74       0.0022
     77  N         16.4460    4.7840   22.9870 N.3    89  VAL89      -0.1245
     78  CA        17.1010    5.6200   23.9890 C.3    89  VAL89       0.1561
     79  C         18.3220    6.2500   23.3180 C.2    89  VAL89       0.2260
     80  O         19.2690    5.5530   22.9530 O.2    89  VAL89      -0.2867
     81  CB        17.5640    4.7870   25.1830 C.3    89  VAL89       0.0252
     82  CG1       18.3450    5.6680   26.1570 C.3    89  VAL89       0.0019
     83  CG2       16.3620    4.1490   25.8580 C.3    89  VAL89       0.0019
     84  N         21.6630    8.7590   23.1150 N.3    91  THR91      -0.1203
     85  CA        22.7330    9.4070   23.8630 C.3    91  THR91       0.1994
     86  C         23.7200   10.0670   22.9060 C.2    91  THR91       0.2618
     87  O         23.6310    9.8970   21.6910 O.2    91  THR91      -0.2717
     88  CB        23.5120    8.3950   24.7400 C.3    91  THR91       0.1784
     89  OG1       24.3860    7.6070   23.9210 O.3    91  THR91      -0.2211
     90  CG2       22.5380    7.4690   25.4600 C.3    91  THR91       0.0376
     91  N         24.6600   10.8200   23.4670 N.am   92  GLU92      -0.1965
     92  CA        25.6850   11.4950   22.6840 C.3    92  GLU92       0.1733
     93  C         26.6150   10.4290   22.0930 C.2    92  GLU92       0.2616
     94  O         26.6980    9.3190   22.6200 O.2    92  GLU92      -0.2715
     95  CB        26.4860   12.4240   23.5910 C.3    92  GLU92       0.0429
     96  CG        27.2690   11.6750   24.6570 C.3    92  GLU92       0.1163
     97  CD        28.1340   12.5950   25.4810 C.2    92  GLU92       0.3649
     98  OE1       28.8910   13.3820   24.8760 O.co2  92  GLU92      -0.2457
     99  OE2       28.0650   12.5280   26.7280 O.co2  92  GLU92      -0.2457
    100  N         27.3100   10.7670   21.0110 N.am   93  PHE93      -0.1960
    101  CA        28.2360    9.8410   20.3460 C.3    93  PHE93       0.1771
    102  C         29.6860   10.1430   20.7530 C.2    93  PHE93       0.2620
    103  O         30.1450   11.2810   20.6430 O.2    93  PHE93      -0.2715
    104  CB        28.0830    9.9720   18.8160 C.3    93  PHE93       0.0574
    105  CG        28.9760    9.0500   18.0190 C.ar   93  PHE93      -0.0200
    106  CD1       28.6980    7.6940   17.9230 C.ar   93  PHE93      -0.0042
    107  CD2       30.0910    9.5490   17.3560 C.ar   93  PHE93      -0.0042
    108  CE1       29.5170    6.8440   17.1760 C.ar   93  PHE93      -0.0003
    109  CE2       30.9190    8.7100   16.6070 C.ar   93  PHE93      -0.0003
    110  CZ        30.6280    7.3510   16.5180 C.ar   93  PHE93      -0.0000
    111  N         30.4020    9.1280   21.2260 N.am   94  CYS94      -0.1954
    112  CA        31.7970    9.2950   21.6260 C.3    94  CYS94       0.1843
    113  C         32.6410    8.7240   20.4860 C.2    94  CYS94       0.2625
    114  O         32.8120    7.5110   20.3670 O.2    94  CYS94      -0.2714
    115  CB        32.0320    8.5550   22.9430 C.3    94  CYS94       0.0997
    116  SG        30.8770    9.0970   24.2500 S.3    94  CYS94      -0.0797
    117  N         33.1750    9.6090   19.6510 N.am   95  LYS95      -0.1977
    118  CA        33.9120    9.1760   18.4710 C.3    95  LYS95       0.1596
    119  C         35.0550    8.1840   18.6040 C.2    95  LYS95       0.2287
    120  O         35.2790    7.3940   17.6850 O.2    95  LYS95      -0.2864
    121  CB        34.4040   10.3850   17.6590 C.3    95  LYS95       0.0298
    122  CG        35.5490   11.1510   18.2640 C.3    95  LYS95       0.0038
    123  CD        36.5950   11.5040   17.1970 C.3    95  LYS95       0.0206
    124  CE        36.0710   12.4290   16.1100 C.3    95  LYS95       0.1093
    125  NZ        35.7900   13.8240   16.5760 N.3    95  LYS95      -0.1314
    126  N         35.3530    5.6330   20.7710 N.3    97  GLY97      -0.1225
    127  CA        34.9810    4.2950   21.2060 C.3    97  GLY97       0.1811
    128  C         35.4620    3.8450   22.5780 C.2    97  GLY97       0.2280
    129  O         35.9410    4.6540   23.3670 O.2    97  GLY97      -0.2866
    130  N         27.7750    9.0740   40.3790 N.3   133  LEU133     -0.1245
    131  CA        26.8060    7.9830   40.4180 C.3   133  LEU133      0.1561
    132  C         26.5470    7.5160   41.8580 C.2   133  LEU133      0.2260
    133  O         25.3990    7.3090   42.2520 O.2   133  LEU133     -0.2867
    134  CB        27.2920    6.8050   39.5590 C.3   133  LEU133      0.0270
    135  CG        27.3470    7.0330   38.0370 C.3   133  LEU133      0.0019
    136  CD1       27.9080    5.8130   37.3170 C.3   133  LEU133      0.0001
    137  CD2       25.9430    7.3370   37.5340 C.3   133  LEU133      0.0001
    138  N         23.4270    5.1580   42.9390 N.3   138  CYS138     -0.1221
    139  CA        23.4070    4.1740   41.8640 C.3   138  CYS138      0.1808
    140  C         24.6050    3.2390   41.9650 C.2   138  CYS138      0.2601
    141  O         25.6090    3.5710   42.5910 O.2   138  CYS138     -0.2717
    142  CB        23.4050    4.8630   40.4920 C.3   138  CYS138      0.0970
    143  SG        21.8040    5.5620   40.0220 S.3   138  CYS138     -0.0800
    144  N         24.4720    2.0620   41.3550 N.am  139  ILE139     -0.1965
    145  CA        25.5200    1.0430   41.3320 C.3   139  ILE139      0.1727
    146  C         25.6470    0.5760   39.8840 C.2   139  ILE139      0.2616
    147  O         24.6940    0.0560   39.3140 O.2   139  ILE139     -0.2715
    148  CB        25.1450   -0.1700   42.2160 C.3   139  ILE139      0.0290
    149  CG1       24.8550    0.2950   43.6460 C.3   139  ILE139      0.0022
    150  CG2       26.2830   -1.1770   42.2320 C.3   139  ILE139      0.0023
    151  CD1       24.4780   -0.8300   44.5880 C.3   139  ILE139      0.0001
    152  N         26.8200    0.7520   39.2890 N.am  140  HIS140     -0.1959
    153  CA        27.0140    0.3640   37.8980 C.3   140  HIS140      0.1787
    154  C         26.8430   -1.1360   37.6380 C.2   140  HIS140      0.2620
    155  O         26.1070   -1.5260   36.7330 O.2   140  HIS140     -0.2715
    156  CB        28.3900    0.8300   37.4180 C.3   140  HIS140      0.0785
    157  CG        28.5260    0.8680   35.9280 C.ar  140  HIS140      0.0821
    158  ND1       28.5830   -0.2710   35.1570 N.ar  140  HIS140     -0.2267
    159  CD2       28.5880    1.9110   35.0650 C.ar  140  HIS140      0.1154
    160  CE1       28.6760    0.0670   33.8820 C.ar  140  HIS140      0.1986
    161  NE2       28.6820    1.3850   33.8000 N.ar  140  HIS140     -0.2212
    162  N         27.5330   -1.9600   38.4240 N.am  141  ARG141     -0.1977
    163  CA        27.4730   -3.4240   38.3190 C.3   141  ARG141      0.1597
    164  C         28.2540   -4.0560   37.1630 C.2   141  ARG141      0.2287
    165  O         28.2880   -5.2810   37.0380 O.2   141  ARG141     -0.2864
    166  CB        26.0190   -3.8970   38.2530 C.3   141  ARG141      0.0334
    167  CG        25.1600   -3.4080   39.4050 C.3   141  ARG141      0.0492
    168  CD        23.7980   -4.0730   39.3910 C.3   141  ARG141      0.2205
    169  NE        22.8160   -3.3050   40.1560 N.pl3 141  ARG141     -0.0865
    170  CZ        22.3690   -2.1010   39.8050 C.cat 141  ARG141      0.5346
    171  NH1       21.4790   -1.4760   40.5600 N.pl3 141  ARG141      0.1354
    172  NH2       22.8080   -1.5210   38.6930 N.pl3 141  ARG141      0.1354
    173  N         33.8970    5.0820   27.4580 N.3   149  LEU149     -0.1245
    174  CA        34.0620    5.6140   26.1100 C.3   149  LEU149      0.1561
    175  C         34.9530    6.8480   26.0880 C.2   149  LEU149      0.2260
    176  O         34.9380    7.6620   27.0190 O.2   149  LEU149     -0.2867
    177  CB        32.6970    5.9490   25.5080 C.3   149  LEU149      0.0270
    178  CG        31.7090    4.7760   25.5230 C.3   149  LEU149      0.0019
    179  CD1       30.3080    5.2710   25.1590 C.3   149  LEU149      0.0001
    180  CD2       32.1810    3.6860   24.5720 C.3   149  LEU149      0.0001
    181  N         31.4220    7.2900   31.2770 N.3   158  ILE158     -0.1231
    182  CA        30.9310    5.9850   31.6750 C.3   158  ILE158      0.1692
    183  C         29.6330    5.6680   30.9520 C.2   158  ILE158      0.2592
    184  O         28.7150    6.4770   30.9310 O.2   158  ILE158     -0.2718
    185  CB        30.6550    5.9110   33.1970 C.3   158  ILE158      0.0266
    186  CG1       31.9480    6.1100   33.9940 C.3   158  ILE158      0.0019
    187  CG2       30.0310    4.5670   33.5220 C.3   158  ILE158      0.0020
    188  CD1       31.7260    6.3340   35.4960 C.3   158  ILE158      0.0001
    189  N         29.5520    4.4850   30.3630 N.am  159  CYS159     -0.1956
    190  CA        28.3430    4.0830   29.6680 C.3   159  CYS159      0.1843
    191  C         28.0130    2.6580   30.0950 C.2   159  CYS159      0.2625
    192  O         28.6070    2.1280   31.0260 O.2   159  CYS159     -0.2714
    193  CB        28.5550    4.1340   28.1550 C.3   159  CYS159      0.0997
    194  SG        29.5690    2.7870   27.5090 S.3   159  CYS159     -0.0797
    195  N         27.0720    2.0320   29.4070 N.am  160  ASP160     -0.1957
    196  CA        26.7050    0.6650   29.7340 C.3   160  ASP160      0.1840
    197  C         26.0030    0.0300   28.5390 C.2   160  ASP160      0.2622
    198  O         24.8230    0.2830   28.2940 O.2   160  ASP160     -0.2715
    199  CB        25.7870    0.6430   30.9600 C.3   160  ASP160      0.1450
    200  CG        25.5240   -0.7670   31.4690 C.2   160  ASP160      0.3671
    201  OD1       24.6870   -0.9290   32.3850 O.co2 160  ASP160     -0.2456
    202  OD2       26.1580   -1.7160   30.9550 O.co2 160  ASP160     -0.2456
    203  N         26.7390   -0.7760   27.7810 N.am  161  PHE161     -0.1974
    204  CA        26.1540   -1.4430   26.6270 C.3   161  PHE161      0.1639
    205  C         25.2280   -2.5550   27.1030 C.2   161  PHE161      0.2290
    206  O         24.1920   -2.8070   26.4920 O.2   161  PHE161     -0.2864
    207  CB        27.2370   -2.0410   25.7220 C.3   161  PHE161      0.0560
    208  CG        28.0320   -1.0170   24.9630 C.ar  161  PHE161     -0.0200
    209  CD1       29.1970   -0.4860   25.4950 C.ar  161  PHE161     -0.0042
    210  CD2       27.6050   -0.5760   23.7150 C.ar  161  PHE161     -0.0042
    211  CE1       29.9280    0.4710   24.7970 C.ar  161  PHE161     -0.0003
    212  CE2       28.3270    0.3820   23.0070 C.ar  161  PHE161     -0.0003
    213  CZ        29.4910    0.9060   23.5490 C.ar  161  PHE161     -0.0000
@<TRIPOS>BOND
     1   124   125    1
     2   124   123    1
     3     1     2    1
     4     8     6    1
     5   110   109   ar
     6   110   108   ar
     7   109   107   ar
     8     6     5    1
     9     6     7    1
    10     2     5    1
    11     2     3    1
    12   108   106   ar
    13   123   122    1
    14   107   105   ar
    15   121   122    1
    16   121   118    1
    17   120   119    2
    18    12    11    2
    19   106   105   ar
    20   105   104    1
    21     3     4    2
    22   118   119    1
    23   118   117    1
    24    11    10    1
    25   104   101    1
    26    16    17    1
    27    17    18    1
    28    17    20    1
    29   117   113   am
    30    10     9    1
    31    10    13    1
    32    18    19    2
    33   101   102    1
    34   101   100    1
    35   114   113    2
    36   113   112    1
    37   103   102    2
    38    14    13    1
    39   102   111   am
    40   126   127    1
    41    13    15    1
    42   100    93   am
    43   127   128    1
    44   111   112    1
    45    21    22    1
    46   112   115    1
    47    87    86    2
    48    23    22    1
    49    23    24    2
    50    93    94    2
    51    93    92    1
    52    22    25    1
    53   128   129    2
    54    92    91    1
    55    92    95    1
    56    86    91   am
    57    86    85    1
    58   115   116    1
    59    80    79    2
    60    77    78    1
    61   212   213   ar
    62   212   210   ar
    63    84    85    1
    64    79    78    1
    65   213   211   ar
    66    95    96    1
    67    25    26    1
    68   210   208   ar
    69    85    88    1
    70    89    88    1
    71    78    81    1
    72    26    27    1
    73   180   178    1
    74    96    97    1
    75    88    90    1
    76   211   209   ar
    77    98    97   ar
    78   208   209   ar
    79   208   207    1
    80   179   178    1
    81    81    83    1
    82    81    82    1
    83    97    99   ar
    84   177   178    1
    85   177   174    1
    86    27    28    1
    87   207   204    1
    88   175   174    1
    89   175   176    2
    90    28    29    1
    91   174   173    1
    92    76    74    1
    93   206   205    2
    94   204   205    1
    95   204   203    1
    96   194   193    1
    97   203   197   am
    98    74    75    1
    99    74    71    1
   100   193   190    1
   101   198   197    2
   102   197   196    1
   103    71    72    1
   104    71    70    1
   105    72    73    2
   106    38    36   ar
   107   195   196    1
   108   195   191   am
   109   190   191    1
   110   190   189    1
   111   196   199    1
   112    37    36   ar
   113    36    35    1
   114    70    65   am
   115    53    52    1
   116   191   192    2
   117   189   183   am
   118    66    65    2
   119    65    64    1
   120   184   183    2
   121   183   182    1
   122   202   200   ar
   123   199   200    1
   124    35    34    1
   125    34    31    1
   126   181   182    1
   127   200   201   ar
   128    52    51    1
   129    52    54    1
   130   182   185    1
   131    32    31    1
   132    32    33    2
   133    51    48    1
   134    64    63    1
   135    64    67    1
   136    31    30    1
   137    68    67    1
   138   185   187    1
   139   185   186    1
   140    67    69    1
   141    48    49    1
   142    48    47    1
   143    49    50    2
   144   161   160   ar
   145   161   159   ar
   146   160   158   ar
   147    47    41   am
   148   186   188    1
   149    39    40    1
   150   159   157   ar
   151   158   157   ar
   152    41    40    1
   153    41    42    2
   154    62    60    1
   155    40    43    1
   156   157   156    1
   157    60    59    1
   158    43    44    1
   159    43    45    1
   160   155   154    2
   161    44    46    1
   162   165   164    2
   163   164   163    1
   164   136   135    1
   165   156   153    1
   166    57    56    1
   167    57    58    2
   168   137   135    1
   169    55    56    1
   170    59    61    1
   171    59    56    1
   172   154   153    1
   173   154   162   am
   174   153   152    1
   175   135   134    1
   176   166   163    1
   177   166   167    1
   178   163   162    1
   179   172   170    1
   180   152   146   am
   181   147   146    2
   182   168   167    1
   183   168   169    1
   184   134   131    1
   185   170   169    2
   186   170   171    1
   187   146   145    1
   188   143   142    1
   189   130   131    1
   190   131   132    1
   191   142   139    1
   192   145   144    1
   193   145   148    1
   194   144   140   am
   195   132   133    2
   196   139   140    1
   197   139   138    1
   198   140   141    2
   199   148   150    1
   200   148   149    1
   201   149   151    1
