@<TRIPOS>MOLECULE
tmp/2qu6A00.pdb
 220 209 0 0 0
SMALL
GASTEIGER

@<TRIPOS>ATOM
      1  N         37.6170   25.2290   19.6920 N.3    24  LEU24      -0.1245
      2  CA        38.8970   25.6650   19.1520 C.3    24  LEU24       0.1561
      3  C         39.3190   26.9210   19.9060 C.2    24  LEU24       0.2260
      4  O         40.2530   27.6180   19.5090 O.2    24  LEU24      -0.2867
      5  CB        38.7790   25.9670   17.6520 C.3    24  LEU24       0.0270
      6  CG        38.3940   24.8100   16.7250 C.3    24  LEU24       0.0019
      7  CD1       38.1090   25.3480   15.3320 C.3    24  LEU24       0.0001
      8  CD2       39.5050   23.7730   16.6940 C.3    24  LEU24       0.0001
      9  N         34.4620   29.5840   19.5670 N.3    27  VAL27      -0.1245
     10  CA        34.8030   29.1580   18.2260 C.3    27  VAL27       0.1561
     11  C         34.9470   27.6480   18.2970 C.2    27  VAL27       0.2260
     12  O         35.6640   27.1310   19.1470 O.2    27  VAL27      -0.2867
     13  CB        36.1440   29.7630   17.7670 C.3    27  VAL27       0.0252
     14  CG1       36.5020   29.2360   16.4010 C.3    27  VAL27       0.0019
     15  CG2       36.0600   31.2760   17.7620 C.3    27  VAL27       0.0019
     16  N         35.2820   26.2230   10.5570 N.3    43  ALA43      -0.1231
     17  CA        35.3880   26.7450   11.9080 C.3    43  ALA43       0.1694
     18  C         34.1410   27.6030   12.0740 C.2    43  ALA43       0.2592
     19  O         33.7050   28.2650   11.1310 O.2    43  ALA43      -0.2718
     20  CB        36.6450   27.5730   12.0680 C.3    43  ALA43       0.0304
     21  N         33.5660   27.5850   13.2680 N.am   44  VAL44      -0.1966
     22  CA        32.3420   28.3210   13.5300 C.3    44  VAL44       0.1727
     23  C         32.4240   29.2080   14.7600 C.2    44  VAL44       0.2616
     24  O         32.8240   28.7610   15.8380 O.2    44  VAL44      -0.2715
     25  CB        31.1470   27.3410   13.7240 C.3    44  VAL44       0.0290
     26  CG1       29.8520   28.1200   13.9580 C.3    44  VAL44       0.0023
     27  CG2       31.0130   26.4330   12.5140 C.3    44  VAL44       0.0023
     28  N         32.0640   30.4760   14.5970 N.am   45  LYS45      -0.1977
     29  CA        32.0480   31.3820   15.7300 C.3    45  LYS45       0.1596
     30  C         30.5800   31.6480   16.0450 C.2    45  LYS45       0.2287
     31  O         29.8100   32.0740   15.1830 O.2    45  LYS45      -0.2864
     32  CB        32.7640   32.7020   15.4210 C.3    45  LYS45       0.0298
     33  CG        32.7120   33.6780   16.5970 C.3    45  LYS45       0.0038
     34  CD        33.3520   35.0210   16.3050 C.3    45  LYS45       0.0206
     35  CE        34.8520   34.9370   16.1750 C.3    45  LYS45       0.1093
     36  NZ        35.4340   36.3090   16.1580 N.3    45  LYS45      -0.1314
     37  N         30.1290   41.8570   12.9070 N.3    59  GLU59      -0.1245
     38  CA        31.4010   41.2970   12.4910 C.3    59  GLU59       0.1567
     39  C         31.1510   40.6390   11.1340 C.2    59  GLU59       0.2260
     40  O         31.9260   40.8160   10.1960 O.2    59  GLU59      -0.2867
     41  CB        31.8910   40.2460   13.4870 C.3    59  GLU59       0.0388
     42  CG        33.2660   39.6830   13.1340 C.3    59  GLU59       0.1160
     43  CD        33.7220   38.6060   14.0960 C.2    59  GLU59       0.3649
     44  OE1       33.5560   38.8020   15.3160 O.co2  59  GLU59      -0.2457
     45  OE2       34.2470   37.5700   13.6400 O.co2  59  GLU59      -0.2457
     46  N         30.8430   43.1950    8.2660 N.3    62  ILE62      -0.1231
     47  CA        32.1390   43.7600    7.9400 C.3    62  ILE62       0.1692
     48  C         33.0010   42.8080    7.1020 C.2    62  ILE62       0.2591
     49  O         33.6370   43.2320    6.1400 O.2    62  ILE62      -0.2718
     50  CB        32.8890   44.1410    9.2210 C.3    62  ILE62       0.0266
     51  CG1       32.0490   45.1330   10.0300 C.3    62  ILE62       0.0019
     52  CG2       34.2210   44.7610    8.8750 C.3    62  ILE62       0.0020
     53  CD1       32.7290   45.6260   11.2850 C.3    62  ILE62       0.0001
     54  N         33.0240   41.5290    7.4690 N.am   63  LEU63      -0.1980
     55  CA        33.8030   40.5320    6.7400 C.3    63  LEU63       0.1596
     56  C         33.2900   40.4250    5.3100 C.2    63  LEU63       0.2287
     57  O         34.0640   40.2320    4.3680 O.2    63  LEU63      -0.2864
     58  CB        33.7030   39.1640    7.4320 C.3    63  LEU63       0.0297
     59  CG        34.5200   38.9860    8.7200 C.3    63  LEU63       0.0022
     60  CD1       34.1470   37.6960    9.4480 C.3    63  LEU63       0.0001
     61  CD2       35.9880   38.9720    8.3490 C.3    63  LEU63       0.0001
     62  N         34.3540   43.8090    3.6050 N.3    66  ILE66      -0.1245
     63  CA        35.7740   43.7920    3.2970 C.3    66  ILE66       0.1561
     64  C         36.1100   42.9770    2.0420 C.2    66  ILE66       0.2260
     65  O         36.8860   43.4180    1.2000 O.2    66  ILE66      -0.2867
     66  CB        36.5580   43.2650    4.5090 C.3    66  ILE66       0.0252
     67  CG1       36.4510   44.2780    5.6530 C.3    66  ILE66       0.0019
     68  CG2       37.9930   43.0170    4.1380 C.3    66  ILE66       0.0019
     69  CD1       37.0620   43.8060    6.9580 C.3    66  ILE66       0.0001
     70  N         43.5990   36.5890    4.7680 N.3    72  VAL72      -0.1231
     71  CA        42.5830   36.9000    5.7550 C.3    72  VAL72       0.1692
     72  C         41.7010   35.6560    5.7970 C.2    72  VAL72       0.2591
     73  O         41.2250   35.1870    4.7670 O.2    72  VAL72      -0.2718
     74  CB        41.7410   38.1260    5.3470 C.3    72  VAL72       0.0266
     75  CG1       40.7300   38.4390    6.4430 C.3    72  VAL72       0.0020
     76  CG2       42.6510   39.3420    5.1020 C.3    72  VAL72       0.0020
     77  N         41.5060   35.0910    6.9780 N.am   73  VAL73      -0.1980
     78  CA        40.6900   33.8900    7.0670 C.3    73  VAL73       0.1595
     79  C         39.4150   34.1340    6.2430 C.2    73  VAL73       0.2287
     80  O         38.7350   35.1410    6.4280 O.2    73  VAL73      -0.2864
     81  CB        40.3470   33.5890    8.5160 C.3    73  VAL73       0.0276
     82  CG1       39.2610   34.5330    8.9860 C.3    73  VAL73       0.0022
     83  CG2       39.9400   32.1320    8.6570 C.3    73  VAL73       0.0022
     84  N         28.7180   32.1630   12.5390 N.3    88  VAL88      -0.1245
     85  CA        29.5600   32.6940   11.4620 C.3    88  VAL88       0.1561
     86  C         30.5600   31.6000   11.0900 C.2    88  VAL88       0.2260
     87  O         31.3440   31.1610   11.9240 O.2    88  VAL88      -0.2867
     88  CB        30.3140   33.9750   11.9140 C.3    88  VAL88       0.0252
     89  CG1       31.2350   34.4670   10.8100 C.3    88  VAL88       0.0019
     90  CG2       29.3100   35.0540   12.2780 C.3    88  VAL88       0.0019
     91  N         33.7620   30.0460    8.8420 N.3    90  THR90      -0.1203
     92  CA        34.9600   30.4070    8.0870 C.3    90  THR90       0.1994
     93  C         35.7380   29.1800    7.6410 C.2    90  THR90       0.2618
     94  O         35.3900   28.0520    7.9770 O.2    90  THR90      -0.2717
     95  CB        35.9140   31.2810    8.9300 C.3    90  THR90       0.1784
     96  OG1       36.5730   30.4670    9.9120 O.3    90  THR90      -0.2211
     97  CG2       35.1290   32.3960    9.6450 C.3    90  THR90       0.0376
     98  N         36.7950   29.3930    6.8700 N.am   91  GLU91      -0.1965
     99  CA        37.5910   28.2610    6.4450 C.3    91  GLU91       0.1733
    100  C         38.2880   27.6910    7.6730 C.2    91  GLU91       0.2616
    101  O         38.3800   28.3480    8.7050 O.2    91  GLU91      -0.2715
    102  CB        38.6230   28.6830    5.3960 C.3    91  GLU91       0.0429
    103  CG        39.5380   29.8140    5.8000 C.3    91  GLU91       0.1163
    104  CD        40.5740   30.1030    4.7200 C.2    91  GLU91       0.3649
    105  OE1       41.1400   29.1270    4.1980 O.co2  91  GLU91      -0.2457
    106  OE2       40.8270   31.2850    4.3920 O.co2  91  GLU91      -0.2457
    107  N         38.7460   26.4550    7.5680 N.am   92  PHE92      -0.1960
    108  CA        39.4520   25.8130    8.6690 C.3    92  PHE92       0.1771
    109  C         40.9440   25.7720    8.3100 C.2    92  PHE92       0.2620
    110  O         41.3060   25.2960    7.2380 O.2    92  PHE92      -0.2715
    111  CB        38.9350   24.3860    8.8630 C.3    92  PHE92       0.0574
    112  CG        39.6080   23.6470    9.9880 C.ar   92  PHE92      -0.0200
    113  CD1       39.3400   23.9770   11.3110 C.ar   92  PHE92      -0.0042
    114  CD2       40.5350   22.6510    9.7220 C.ar   92  PHE92      -0.0042
    115  CE1       39.9860   23.3300   12.3500 C.ar   92  PHE92      -0.0003
    116  CE2       41.1900   21.9950   10.7620 C.ar   92  PHE92      -0.0003
    117  CZ        40.9120   22.3390   12.0780 C.ar   92  PHE92      -0.0000
    118  N         41.7980   26.2720    9.1970 N.am   93  CYS93      -0.1954
    119  CA        43.2430   26.2790    8.9580 C.3    93  CYS93       0.1843
    120  C         43.8240   25.2080    9.8840 C.2    93  CYS93       0.2625
    121  O         43.9800   25.4340   11.0770 O.2    93  CYS93      -0.2714
    122  CB        43.8110   27.6640    9.2900 C.3    93  CYS93       0.0997
    123  SG        43.0620   29.0260    8.3350 S.3    93  CYS93      -0.0797
    124  N         44.1670   24.0550    9.3170 N.am   94  LYS94      -0.1977
    125  CA        44.6330   22.9100   10.1030 C.3    94  LYS94       0.1596
    126  C         45.8080   23.0080   11.0600 C.2    94  LYS94       0.2287
    127  O         45.8120   22.3150   12.0760 O.2    94  LYS94      -0.2864
    128  CB        44.8470   21.7050    9.1890 C.3    94  LYS94       0.0298
    129  CG        45.8420   21.9270    8.0920 C.3    94  LYS94       0.0038
    130  CD        45.9660   20.6900    7.2230 C.3    94  LYS94       0.0206
    131  CE        46.4370   19.4900    8.0220 C.3    94  LYS94       0.1093
    132  NZ        46.6020   18.3130    7.1140 N.3    94  LYS94      -0.1314
    133  N         46.6450   25.6700   12.8500 N.3    96  GLY96      -0.1225
    134  CA        46.3370   26.5290   13.9870 C.3    96  GLY96       0.1811
    135  C         47.1120   27.8290   14.1510 C.2    96  GLY96       0.2280
    136  O         47.7340   28.3050   13.2110 O.2    96  GLY96      -0.2866
    137  N         43.4810   45.2070    4.7120 N.3   143  LEU143     -0.1245
    138  CA        42.5240   45.6830    5.7110 C.3   143  LEU143      0.1561
    139  C         42.6390   47.1940    5.9680 C.2   143  LEU143      0.2260
    140  O         41.6270   47.8800    6.1290 O.2   143  LEU143     -0.2867
    141  CB        42.6910   44.9130    7.0390 C.3   143  LEU143      0.0270
    142  CG        42.4130   43.3940    7.0920 C.3   143  LEU143      0.0019
    143  CD1       42.8260   42.8250    8.4580 C.3   143  LEU143      0.0001
    144  CD2       40.9400   43.1100    6.8180 C.3   143  LEU143      0.0001
    145  N         39.9640   49.4850    7.9470 N.3   148  CYS148     -0.1221
    146  CA        39.8380   48.5440    9.0540 C.3   148  CYS148      0.1808
    147  C         41.0150   48.5990   10.0230 C.2   148  CYS148      0.2601
    148  O         42.1690   48.7320    9.6120 O.2   148  CYS148     -0.2717
    149  CB        39.7000   47.1190    8.5150 C.3   148  CYS148      0.0970
    150  SG        38.1600   46.8530    7.6480 S.3   148  CYS148     -0.0800
    151  N         40.7100   48.4840   11.3090 N.am  149  ILE149     -0.1965
    152  CA        41.7190   48.4960   12.3640 C.3   149  ILE149      0.1727
    153  C         41.5390   47.2050   13.1680 C.2   149  ILE149      0.2616
    154  O         40.5140   47.0280   13.8210 O.2   149  ILE149     -0.2715
    155  CB        41.5070   49.6940   13.2850 C.3   149  ILE149      0.0290
    156  CG1       41.4910   50.9810   12.4540 C.3   149  ILE149      0.0022
    157  CG2       42.5810   49.7130   14.3500 C.3   149  ILE149      0.0023
    158  CD1       40.9820   52.1710   13.2070 C.3   149  ILE149      0.0001
    159  N         42.5240   46.3100   13.1290 N.am  150  HIS150     -0.1959
    160  CA        42.3900   45.0300   13.8250 C.3   150  HIS150      0.1787
    161  C         42.2270   45.1580   15.3290 C.2   150  HIS150      0.2620
    162  O         41.3260   44.5600   15.9000 O.2   150  HIS150     -0.2715
    163  CB        43.5730   44.1100   13.5110 C.3   150  HIS150      0.0785
    164  CG        43.3440   42.6870   13.9160 C.ar  150  HIS150      0.0821
    165  ND1       43.2940   42.2820   15.2350 N.ar  150  HIS150     -0.2267
    166  CD2       43.1160   41.5770   13.1740 C.ar  150  HIS150      0.1154
    167  CE1       43.0480   40.9850   15.2850 C.ar  150  HIS150      0.1986
    168  NE2       42.9360   40.5340   14.0490 N.ar  150  HIS150     -0.2212
    169  N         43.1050   45.9330   15.9530 N.am  151  ARG151     -0.1977
    170  CA        43.0700   46.1760   17.3900 C.3   151  ARG151      0.1597
    171  C         43.6870   45.0900   18.2660 C.2   151  ARG151      0.2287
    172  O         43.9650   45.3410   19.4340 O.2   151  ARG151     -0.2864
    173  CB        41.6310   46.4470   17.8600 C.3   151  ARG151      0.0334
    174  CG        41.0230   47.7380   17.3200 C.3   151  ARG151      0.0492
    175  CD        39.5450   47.8740   17.7000 C.3   151  ARG151      0.2205
    176  NE        39.3260   48.0150   19.1380 N.pl3 151  ARG151     -0.0865
    177  CZ        38.9420   49.1450   19.7320 C.cat 151  ARG151      0.5346
    178  NH1       38.7660   49.1830   21.0520 N.pl3 151  ARG151      0.1354
    179  NH2       38.7240   50.2410   19.0120 N.pl3 151  ARG151      0.1354
    180  N         46.7600   32.3820   11.6800 N.3   159  LEU159     -0.1245
    181  CA        46.5380   30.9550   11.5070 C.3   159  LEU159      0.1561
    182  C         47.3610   30.4100   10.3600 C.2   159  LEU159      0.2260
    183  O         47.6160   31.1180    9.3770 O.2   159  LEU159     -0.2867
    184  CB        45.0520   30.6810   11.2390 C.3   159  LEU159      0.0270
    185  CG        44.0860   31.2490   12.2790 C.3   159  LEU159      0.0019
    186  CD1       42.6590   30.8840   11.9220 C.3   159  LEU159      0.0001
    187  CD2       44.4300   30.6950   13.6380 C.3   159  LEU159      0.0001
    188  N         45.1250   36.0910    8.6860 N.3   168  ILE168     -0.1231
    189  CA        44.7880   36.9360    9.8180 C.3   168  ILE168      0.1692
    190  C         43.3620   36.6190   10.2600 C.2   168  ILE168      0.2592
    191  O         42.4340   36.6200    9.4490 O.2   168  ILE168     -0.2718
    192  CB        44.8540   38.4240    9.4360 C.3   168  ILE168      0.0266
    193  CG1       46.2850   38.8050    9.0300 C.3   168  ILE168      0.0019
    194  CG2       44.3910   39.2680   10.6000 C.3   168  ILE168      0.0020
    195  CD1       46.3810   40.1340    8.2910 C.3   168  ILE168      0.0001
    196  N         43.1790   36.3250   11.5380 N.am  169  CYS169     -0.1956
    197  CA        41.8420   36.0460   12.0170 C.3   169  CYS169      0.1843
    198  C         41.6120   36.8470   13.2890 C.2   169  CYS169      0.2625
    199  O         42.4010   37.7280   13.6200 O.2   169  CYS169     -0.2714
    200  CB        41.6760   34.5470   12.2760 C.3   169  CYS169      0.0997
    201  SG        42.4410   33.9430   13.7920 S.3   169  CYS169     -0.0797
    202  N         40.5080   36.5800   13.9750 N.am  170  ASP170     -0.1957
    203  CA        40.2230   37.2590   15.2320 C.3   170  ASP170      0.1840
    204  C         39.2940   36.3830   16.0610 C.2   170  ASP170      0.2622
    205  O         38.1050   36.2880   15.7830 O.2   170  ASP170     -0.2715
    206  CB        39.5820   38.6300   14.9980 C.3   170  ASP170      0.1450
    207  CG        39.4430   39.4310   16.2860 C.2   170  ASP170      0.3671
    208  OD1       39.0190   40.6000   16.2340 O.co2 170  ASP170     -0.2456
    209  OD2       39.7640   38.8790   17.3580 O.co2 170  ASP170     -0.2456
    210  N         39.8450   35.7240   17.0720 N.am  171  PHE171     -0.1974
    211  CA        39.0340   34.8590   17.9220 C.3   171  PHE171      0.1639
    212  C         38.0790   35.6190   18.8390 C.2   171  PHE171      0.2290
    213  O         37.0870   35.0580   19.3050 O.2   171  PHE171     -0.2864
    214  CB        39.9260   33.9520   18.7680 C.3   171  PHE171      0.0560
    215  CG        40.5870   32.8650   17.9890 C.ar  171  PHE171     -0.0200
    216  CD1       41.8010   33.0860   17.3550 C.ar  171  PHE171     -0.0042
    217  CD2       39.9940   31.6160   17.8830 C.ar  171  PHE171     -0.0042
    218  CE1       42.4170   32.0790   16.6280 C.ar  171  PHE171     -0.0003
    219  CE2       40.6040   30.6010   17.1580 C.ar  171  PHE171     -0.0003
    220  CZ        41.8170   30.8340   16.5320 C.ar  171  PHE171     -0.0000
@<TRIPOS>BOND
     1    65    64    2
     2    64    63    1
     3    63    62    1
     4    63    66    1
     5    68    66    1
     6   105   104   ar
     7    57    56    2
     8   106   104   ar
     9    66    67    1
    10   137   138    1
    11   104   103    1
    12    73    72    2
    13    70    71    1
    14    76    74    1
    15    56    55    1
    16    74    71    1
    17    74    75    1
    18   102   103    1
    19   102    99    1
    20    67    69    1
    21   138   139    1
    22   138   141    1
    23    71    72    1
    24    72    77   am
    25   139   140    2
    26    49    48    2
    27    79    80    2
    28    79    78    1
    29    99    98    1
    30    99   100    1
    31    55    58    1
    32    55    54    1
    33   144   142    1
    34    98    93   am
    35    77    78    1
    36   141   142    1
    37    78    81    1
    38   142   143    1
    39    48    54   am
    40    48    47    1
    41   132   131    1
    42   130   131    1
    43   130   129    1
    44   110   109    2
    45    58    59    1
    46   107   100   am
    47   107   108    1
    48    93    94    2
    49    93    92    1
    50   150   149    1
    51   100   101    2
    52    47    46    1
    53    47    50    1
    54   145   146    1
    55    92    91    1
    56    92    95    1
    57   129   128    1
    58   195   193    1
    59   109   108    1
    60   109   118   am
    61   123   122    1
    62    61    59    1
    63   149   146    1
    64    81    83    1
    65    81    82    1
    66   108   111    1
    67   188   189    1
    68    59    60    1
    69   111   112    1
    70    52    50    1
    71    95    97    1
    72    95    96    1
    73   119   118    1
    74   119   122    1
    75   119   120    1
    76   193   192    1
    77   146   147    1
    78   128   125    1
    79    50    51    1
    80   124   120   am
    81   124   125    1
    82   183   182    2
    83   192   189    1
    84   192   194    1
    85   191   190    2
    86   148   147    2
    87   114   112   ar
    88   114   116   ar
    89   189   190    1
    90   120   121    2
    91   112   113   ar
    92   147   151   am
    93    51    53    1
    94   125   126    1
    95    40    39    2
    96   190   196   am
    97   182   181    1
    98    16    17    1
    99   116   117   ar
   100    89    88    1
   101   126   127    2
   102    86    85    1
   103    86    87    2
   104    19    18    2
   105    39    38    1
   106   184   181    1
   107   184   185    1
   108   151   152    1
   109   113   115   ar
   110    85    88    1
   111    85    84    1
   112   181   180    1
   113   196   197    1
   114    17    20    1
   115    17    18    1
   116    88    90    1
   117   186   185    1
   118   197   200    1
   119   197   198    1
   120    18    21   am
   121   117   115   ar
   122   200   201    1
   123   185   187    1
   124   152   153    1
   125   152   155    1
   126   156   158    1
   127   156   155    1
   128    38    37    1
   129    38    41    1
   130    27    25    1
   131   133   134    1
   132   159   153   am
   133   159   160    1
   134    42    41    1
   135    42    43    1
   136   153   154    2
   137   166   164   ar
   138   166   168   ar
   139   136   135    2
   140    21    22    1
   141   155   157    1
   142   198   199    2
   143   198   202   am
   144   163   160    1
   145   163   164    1
   146    22    25    1
   147    22    23    1
   148    45    43   ar
   149    25    26    1
   150   160   161    1
   151   164   165   ar
   152   202   203    1
   153   134   135    1
   154   168   167   ar
   155    43    44   ar
   156    28    23   am
   157    28    29    1
   158    23    24    2
   159   206   203    1
   160   206   207    1
   161    31    30    2
   162   203   204    1
   163   165   167   ar
   164   161   162    2
   165   161   169   am
   166     7     6    1
   167    32    29    1
   168    32    33    1
   169    29    30    1
   170   205   204    2
   171   169   170    1
   172   204   210   am
   173    36    35    1
   174    35    34    1
   175   208   207   ar
   176   207   209   ar
   177    34    33    1
   178    14    13    1
   179   220   218   ar
   180   220   219   ar
   181   218   216   ar
   182     8     6    1
   183     6     5    1
   184   210   211    1
   185   219   217   ar
   186   174   175    1
   187   174   173    1
   188   216   215   ar
   189   170   173    1
   190   170   171    1
   191     5     2    1
   192   175   176    1
   193    15    13    1
   194    13    10    1
   195   217   215   ar
   196   211   214    1
   197   211   212    1
   198   215   214    1
   199    10    11    1
   200    10     9    1
   201   171   172    2
   202    11    12    2
   203   212   213    2
   204   179   177    1
   205   176   177    2
   206     2     1    1
   207     2     3    1
   208     4     3    2
   209   177   178    1
