@<TRIPOS>MOLECULE
tmp/2qu8A00.pdb
 119 114 0 0 0
SMALL
GASTEIGER

@<TRIPOS>ATOM
      1  N         38.7950    8.4940   -1.9540 N.3    17  PRO17      -0.2102
      2  CA        37.4540    8.8760   -2.3740 C.3    17  PRO17       0.1504
      3  C         36.3800    8.2510   -1.4830 C.2    17  PRO17       0.2576
      4  O         36.5060    7.0970   -1.0740 O.2    17  PRO17      -0.2718
      5  CB        37.3580    8.3210   -3.8010 C.3    17  PRO17       0.0282
      6  CG        38.7860    8.2740   -4.2770 C.3    17  PRO17       0.0208
      7  CD        39.5560    7.8630   -3.0530 C.3    17  PRO17       0.0893
      8  N         35.3560    9.0470   -1.1830 N.am   18  ASN18      -0.1961
      9  CA        34.1440    8.6210   -0.4680 C.3    18  ASN18       0.1819
     10  C         34.3170    8.3370    1.0250 C.2    18  ASN18       0.2621
     11  O         33.5160    7.6200    1.6280 O.2    18  ASN18      -0.2715
     12  CB        33.4360    7.4730   -1.2000 C.3    18  ASN18       0.1195
     13  CG        33.0260    7.8690   -2.6090 C.2    18  ASN18       0.2630
     14  OD1       33.5750    7.3690   -3.5850 O.2    18  ASN18      -0.2716
     15  ND2       32.0970    8.8060   -2.7150 N.am   18  ASN18      -0.0877
     16  N         35.3420    8.9360    1.6170 N.am   19  VAL19      -0.1963
     17  CA        35.5790    8.7750    3.0670 C.3    19  VAL19       0.1727
     18  C         34.8790    9.8260    3.9090 C.2    19  VAL19       0.2617
     19  O         34.8190    9.6860    5.1260 O.2    19  VAL19      -0.2715
     20  CB        37.0860    8.7230    3.4380 C.3    19  VAL19       0.0290
     21  CG1       37.7500    7.5500    2.7590 C.3    19  VAL19       0.0023
     22  CG2       37.7910   10.0590    3.1190 C.3    19  VAL19       0.0023
     23  N         34.3590   10.8670    3.2570 N.am   20  GLY20      -0.1940
     24  CA        33.6200   11.9490    3.9350 C.3    20  GLY20       0.2014
     25  C         34.3140   13.3010    3.9890 C.2    20  GLY20       0.2639
     26  O         33.9900   14.1330    4.8430 O.2    20  GLY20      -0.2714
     27  N         35.2660   13.5330    3.0850 N.am   21  LYS21      -0.1963
     28  CA        36.0040   14.8010    3.0570 C.3    21  LYS21       0.1728
     29  C         35.1100   15.9970    2.7120 C.2    21  LYS21       0.2617
     30  O         35.0900   16.9840    3.4520 O.2    21  LYS21      -0.2715
     31  CB        37.1980   14.7470    2.1010 C.3    21  LYS21       0.0311
     32  CG        38.2450   13.6820    2.3960 C.3    21  LYS21       0.0038
     33  CD        39.4050   13.7550    1.3810 C.3    21  LYS21       0.0206
     34  CE        38.9260   13.5840   -0.0680 C.3    21  LYS21       0.1093
     35  NZ        38.2700   12.2560   -0.3030 N.3    21  LYS21      -0.1314
     36  N         34.3770   15.9210    1.5980 N.am   22  SER22      -0.1936
     37  CA        33.4930   17.0290    1.2140 C.3    22  SER22       0.2055
     38  C         32.3930   17.2470    2.2460 C.2    22  SER22       0.2643
     39  O         32.0080   18.3890    2.5130 O.2    22  SER22      -0.2714
     40  CB        32.8870   16.8440   -0.1900 C.3    22  SER22       0.2130
     41  OG        31.9700   15.7620   -0.2250 O.3    22  SER22      -0.2179
     42  N         31.8970   16.1550    2.8260 N.am   23  SER23      -0.1949
     43  CA        30.9070   16.2400    3.8950 C.3    23  SER23       0.1924
     44  C         31.4640   17.0200    5.0890 C.2    23  SER23       0.2314
     45  O         30.8020   17.9020    5.6280 O.2    23  SER23      -0.2863
     46  CB        30.4780   14.8390    4.3470 C.3    23  SER23       0.2116
     47  OG        29.7390   14.1850    3.3370 O.3    23  SER23      -0.2180
     48  N         39.4530   21.1090    0.1340 N.3    56  ASP56      -0.1239
     49  CA        39.2200   19.7580   -0.3460 C.3    56  ASP56       0.1674
     50  C         39.6140   19.7580   -1.8240 C.2    56  ASP56       0.2266
     51  O         39.1380   20.5900   -2.5980 O.2    56  ASP56      -0.2867
     52  CB        37.7310   19.3750   -0.1560 C.3    56  ASP56       0.1410
     53  CG        37.4260   17.9200   -0.5390 C.2    56  ASP56       0.3668
     54  OD1       38.2890   17.0420   -0.3490 O.co2  56  ASP56      -0.2456
     55  OD2       36.3010   17.6420   -1.0130 O.co2  56  ASP56      -0.2456
     56  N         33.0710    1.4560    3.7250 N.3    95  GLN95      -0.1245
     57  CA        32.0260    1.6980    2.7170 C.3    95  GLN95       0.1566
     58  C         32.5350    2.4990    1.5100 C.2    95  GLN95       0.2260
     59  O         31.9480    2.4250    0.4240 O.2    95  GLN95      -0.2867
     60  CB        30.8070    2.3930    3.3440 C.3    95  GLN95       0.0367
     61  CG        30.0050    1.5220    4.3340 C.3    95  GLN95       0.0905
     62  CD        28.6410    2.1260    4.7210 C.2    95  GLN95       0.2608
     63  OE1       28.3160    3.2610    4.3710 O.2    95  GLN95      -0.2717
     64  NE2       27.8440    1.3560    5.4450 N.am   95  GLN95      -0.0878
     65  N         36.4290    8.2730   10.4330 N.3   123  ASN123     -0.1225
     66  CA        35.0760    8.6630   10.0900 C.3   123  ASN123      0.1785
     67  C         34.1360    7.4790    9.9140 C.2   123  ASN123      0.2597
     68  O         34.5760    6.3400    9.7750 O.2   123  ASN123     -0.2718
     69  CB        35.0820    9.5210    8.8180 C.3   123  ASN123      0.1169
     70  CG        33.8150   10.3310    8.6510 C.2   123  ASN123      0.2627
     71  OD1       33.0710   10.5340    9.6070 O.2   123  ASN123     -0.2716
     72  ND2       33.5670   10.8080    7.4350 N.am  123  ASN123     -0.0877
     73  N         32.8420    7.7940    9.8940 N.am  124  LYS124     -0.1980
     74  CA        31.7270    6.8520    9.7130 C.3   124  LYS124      0.1596
     75  C         31.5620    5.8830   10.8870 C.2   124  LYS124      0.2287
     76  O         31.1780    4.7270   10.7000 O.2   124  LYS124     -0.2864
     77  CB        31.7890    6.1240    8.3530 C.3   124  LYS124      0.0298
     78  CG        31.9730    7.0610    7.1470 C.3   124  LYS124      0.0038
     79  CD        31.4560    6.4320    5.8610 C.3   124  LYS124      0.0206
     80  CE        31.8210    7.2850    4.6470 C.3   124  LYS124      0.1093
     81  NZ        31.8700    6.4550    3.3980 N.3   124  LYS124     -0.1314
     82  N         29.2980    5.7710   12.9080 N.3   126  ASP126     -0.1225
     83  CA        27.9030    5.3390   12.9380 C.3   126  ASP126      0.1805
     84  C         27.7350    3.9430   12.3310 C.2   126  ASP126      0.2597
     85  O         26.7090    3.2990   12.5270 O.2   126  ASP126     -0.2718
     86  CB        26.9980    6.3450   12.2130 C.3   126  ASP126      0.1424
     87  CG        27.3720    6.5280   10.7470 C.2   126  ASP126      0.3668
     88  OD1       26.5420    6.1920    9.8800 O.co2 126  ASP126     -0.2456
     89  OD2       28.4930    6.9990   10.4620 O.co2 126  ASP126     -0.2456
     90  N         28.7490    3.4860   11.6020 N.am  127  LYS127     -0.1979
     91  CA        28.7410    2.1620   10.9840 C.3   127  LYS127      0.1596
     92  C         29.8860    1.2890   11.4940 C.2   127  LYS127      0.2287
     93  O         30.2580    0.3160   10.8390 O.2   127  LYS127     -0.2864
     94  CB        28.8270    2.2760    9.4550 C.3   127  LYS127      0.0298
     95  CG        27.6690    3.0020    8.7870 C.3   127  LYS127      0.0038
     96  CD        26.4410    2.1300    8.6640 C.3   127  LYS127      0.0206
     97  CE        25.2720    2.9060    8.0800 C.3   127  LYS127      0.1093
     98  NZ        24.0400    2.0740    8.0760 N.3   127  LYS127     -0.1314
     99  N         31.4750   11.0740   12.9910 N.3   156  SER156     -0.1202
    100  CA        30.5670   10.6920   11.9380 C.3   156  SER156      0.2020
    101  C         30.0650   11.9440   11.2460 C.2   156  SER156      0.2619
    102  O         29.3510   12.7380   11.8490 O.2   156  SER156     -0.2717
    103  CB        29.3890    9.8990   12.5010 C.3   156  SER156      0.2103
    104  OG        28.3570    9.8030   11.5310 O.3   156  SER156     -0.2182
    105  N         30.4330   12.1150    9.9770 N.am  157  THR157     -0.1938
    106  CA        29.9000   13.2160    9.1890 C.3   157  THR157      0.2028
    107  C         28.4440   12.9600    8.7410 C.2   157  THR157      0.2642
    108  O         27.8130   13.8290    8.1360 O.2   157  THR157     -0.2714
    109  CB        30.8320   13.6200    7.9870 C.3   157  THR157      0.1808
    110  OG1       31.2370   12.4620    7.2510 O.3   157  THR157     -0.2208
    111  CG2       32.0800   14.3370    8.4830 C.3   157  THR157      0.0379
    112  N         27.9060   11.7780    9.0410 N.am  158  LEU158     -0.1977
    113  CA        26.4810   11.5310    8.8040 C.3   158  LEU158      0.1596
    114  C         25.6230   11.9190   10.0130 C.2   158  LEU158      0.2287
    115  O         24.5400   12.4670    9.8500 O.2   158  LEU158     -0.2864
    116  CB        26.2020   10.0800    8.3710 C.3   158  LEU158      0.0297
    117  CG        24.8130    9.7630    7.7810 C.3   158  LEU158      0.0022
    118  CD1       24.5110   10.5640    6.4980 C.3   158  LEU158      0.0001
    119  CD2       24.6770    8.2720    7.5070 C.3   158  LEU158      0.0001
@<TRIPOS>BOND
     1     6     5    1
     2     6     7    1
     3     5     2    1
     4    14    13    2
     5     7     1    1
     6    15    13   am
     7    13    12    1
     8    51    50    2
     9     2     1    1
    10     2     3    1
    11    50    49    1
    12     3     8   am
    13     3     4    2
    14    12     9    1
    15     8     9    1
    16    55    53   ar
    17    53    54   ar
    18    53    52    1
    19     9    10    1
    20    49    52    1
    21    49    48    1
    22    35    34    1
    23    41    40    1
    24    40    37    1
    25    34    33    1
    26    59    58    2
    27    10    16   am
    28    10    11    2
    29    37    36    1
    30    37    38    1
    31    33    32    1
    32    58    57    1
    33    36    29   am
    34    16    17    1
    35    31    32    1
    36    31    28    1
    37    38    39    2
    38    38    42   am
    39    29    28    1
    40    29    30    2
    41    57    60    1
    42    57    56    1
    43    21    20    1
    44    42    43    1
    45    28    27    1
    46    17    20    1
    47    17    18    1
    48    27    25   am
    49    22    20    1
    50    23    18   am
    51    23    24    1
    52    47    46    1
    53    60    61    1
    54    81    80    1
    55    43    46    1
    56    43    44    1
    57    18    19    2
    58    24    25    1
    59    25    26    2
    60    61    62    1
    61    63    62    2
    62    80    79    1
    63    62    64   am
    64    44    45    2
    65    79    78    1
    66   118   117    1
    67    78    77    1
    68   110   109    1
    69    72    70   am
    70   119   117    1
    71   117   116    1
    72   109   111    1
    73   109   106    1
    74    98    97    1
    75    97    96    1
    76   108   107    2
    77    77    74    1
    78   116   113    1
    79    70    69    1
    80    70    71    2
    81    96    95    1
    82   107   112   am
    83   107   106    1
    84    95    94    1
    85   113   112    1
    86   113   114    1
    87    69    66    1
    88   106   105    1
    89    94    91    1
    90    74    73    1
    91    74    75    1
    92    68    67    2
    93   115   114    2
    94    88    87   ar
    95    73    67   am
    96    67    66    1
    97   105   101   am
    98    66    65    1
    99    89    87   ar
   100    76    75    2
   101    87    86    1
   102    93    92    2
   103    91    92    1
   104    91    90    1
   105   101   102    2
   106   101   100    1
   107   104   103    1
   108    90    84   am
   109   100   103    1
   110   100    99    1
   111    86    83    1
   112    84    85    2
   113    84    83    1
   114    82    83    1
