@<TRIPOS>MOLECULE
tmp/2qu9A00.pdb
 134 128 0 0 0
SMALL
GASTEIGER

@<TRIPOS>ATOM
      1  N         10.8120   16.1230   -5.2250 N.3     2  LEU2       -0.1245
      2  CA         9.4020   16.4140   -5.0140 C.3     2  LEU2        0.1561
      3  C          8.5940   15.3220   -4.2980 C.2     2  LEU2        0.2260
      4  O          7.6400   15.6280   -3.5890 O.2     2  LEU2       -0.2867
      5  CB         8.7450   16.8850   -6.3050 C.3     2  LEU2        0.0270
      6  CG         8.7880   18.4130   -6.5150 C.3     2  LEU2        0.0019
      7  CD1        9.9190   19.1260   -5.7340 C.3     2  LEU2        0.0001
      8  CD2        8.8700   18.7770   -8.0230 C.3     2  LEU2        0.0001
      9  N          9.5740   15.9300   -0.6400 N.3     5  PHE5       -0.1227
     10  CA         9.0970   17.2200   -0.2280 C.3     5  PHE5        0.1736
     11  C          7.5620   17.1590   -0.0170 C.2     5  PHE5        0.2596
     12  O          7.0650   17.6080    1.0190 O.2     5  PHE5       -0.2718
     13  CB         9.4530   18.3180   -1.2290 C.3     5  PHE5        0.0547
     14  CG         9.1330   19.7520   -0.7270 C.ar    5  PHE5       -0.0202
     15  CD1        9.2190   20.0750    0.6320 C.ar    5  PHE5       -0.0042
     16  CD2        8.7670   20.7540   -1.6060 C.ar    5  PHE5       -0.0042
     17  CE1        8.9440   21.3530    1.0770 C.ar    5  PHE5       -0.0003
     18  CE2        8.5080   22.0290   -1.1690 C.ar    5  PHE5       -0.0003
     19  CZ         8.5890   22.3310    0.1960 C.ar    5  PHE5       -0.0000
     20  N          6.8350   16.6140   -0.9970 N.am    6  GLY6       -0.1957
     21  CA         5.4110   16.4320   -0.9140 C.3     6  GLY6        0.1869
     22  C          4.9490   15.6450    0.3020 C.2     6  GLY6        0.2309
     23  O          3.9490   16.0010    0.9400 O.2     6  GLY6       -0.2863
     24  N          5.4320   17.7840    3.6010 N.3     9  ILE9       -0.1245
     25  CA         4.3590   18.7600    3.7070 C.3     9  ILE9        0.1561
     26  C          3.0590   18.1520    4.2650 C.2     9  ILE9        0.2260
     27  O          2.4190   18.7220    5.1640 O.2     9  ILE9       -0.2867
     28  CB         4.0550   19.3990    2.3550 C.3     9  ILE9        0.0252
     29  CG1        5.2180   20.3070    1.9240 C.3     9  ILE9        0.0019
     30  CG2        2.8110   20.2290    2.4330 C.3     9  ILE9        0.0019
     31  CD1        5.1560   20.8420    0.4090 C.3     9  ILE9        0.0001
     32  N          0.3700   18.6790   -0.9690 N.3    17  ALA17      -0.1231
     33  CA         1.2330   19.6600   -1.6330 C.3    17  ALA17       0.1694
     34  C          0.5710   20.1790   -2.9020 C.2    17  ALA17       0.2591
     35  O          0.4460   21.3850   -3.0780 O.2    17  ALA17      -0.2718
     36  CB         2.5280   19.0340   -1.9450 C.3    17  ALA17       0.0304
     37  N          0.1640   19.2560   -3.7840 N.am   18  ILE18      -0.1980
     38  CA        -0.6870   19.5350   -4.9270 C.3    18  ILE18       0.1595
     39  C         -2.1630   19.2310   -4.5090 C.2    18  ILE18       0.2287
     40  O         -2.5190   18.0950   -4.1530 O.2    18  ILE18      -0.2864
     41  CB        -0.2960   18.6390   -6.1660 C.3    18  ILE18       0.0276
     42  CG1        1.1270   18.9090   -6.6410 C.3    18  ILE18       0.0022
     43  CG2       -1.2700   18.8430   -7.3510 C.3    18  ILE18       0.0022
     44  CD1        1.6490   17.8150   -7.5380 C.3    18  ILE18       0.0001
     45  N         -0.4340   23.8190   -2.1900 N.3    21  TYR21      -0.1227
     46  CA         0.8130   24.5610   -2.1820 C.3    21  TYR21       0.1736
     47  C          1.5020   24.6240   -3.5410 C.2    21  TYR21       0.2596
     48  O          2.6770   24.9910   -3.6280 O.2    21  TYR21      -0.2718
     49  CB         1.7910   23.9250   -1.1910 C.3    21  TYR21       0.0548
     50  CG         1.4070   24.1250    0.2260 C.ar   21  TYR21      -0.0200
     51  CD1        1.4770   25.3930    0.8240 C.ar   21  TYR21      -0.0009
     52  CD2        0.9210   23.0690    0.9540 C.ar   21  TYR21      -0.0009
     53  CE1        1.1080   25.5700    2.1600 C.ar   21  TYR21       0.0417
     54  CE2        0.5480   23.2170    2.2840 C.ar   21  TYR21       0.0417
     55  CZ         0.6560   24.4640    2.8770 C.ar   21  TYR21       0.1957
     56  OH         0.2630   24.5570    4.1600 O.3    21  TYR21      -0.2866
     57  N          0.8250   24.2190   -4.6000 N.am   22  SER22      -0.1952
     58  CA         1.5190   24.1580   -5.8840 C.3    22  SER22       0.1924
     59  C          1.1340   25.3660   -6.7360 C.2    22  SER22       0.2314
     60  O          1.8000   25.6490   -7.7260 O.2    22  SER22      -0.2863
     61  CB         1.2260   22.8360   -6.6070 C.3    22  SER22       0.2116
     62  OG        -0.1760   22.6810   -6.7600 O.3    22  SER22      -0.2180
     63  N          4.7320   32.7220   -5.1330 N.3    27  TYR27      -0.1241
     64  CA         5.9460   31.8420   -5.0680 C.3    27  TYR27       0.1605
     65  C          5.7550   30.3520   -4.9170 C.2    27  TYR27       0.2264
     66  O          6.6800   29.6240   -5.2250 O.2    27  TYR27      -0.2867
     67  CB         6.9560   32.3360   -3.9790 C.3    27  TYR27       0.0534
     68  CG         7.5780   33.5810   -4.4440 C.ar   27  TYR27      -0.0201
     69  CD1        7.0210   34.8220   -4.1370 C.ar   27  TYR27      -0.0009
     70  CD2        8.6800   33.5310   -5.2640 C.ar   27  TYR27      -0.0009
     71  CE1        7.5900   35.9960   -4.6280 C.ar   27  TYR27       0.0417
     72  CE2        9.2360   34.6630   -5.7370 C.ar   27  TYR27       0.0417
     73  CZ         8.6750   35.8940   -5.4400 C.ar   27  TYR27       0.1957
     74  OH         9.2840   37.0150   -5.9510 O.3    27  TYR27      -0.2866
     75  N          5.0880   26.8490   -5.9910 N.3    29  GLY29      -0.1225
     76  CA         4.9640   26.1860   -7.2860 C.3    29  GLY29       0.1811
     77  C          5.7430   26.8940   -8.3700 C.2    29  GLY29       0.2280
     78  O          6.7850   27.4900   -8.1030 O.2    29  GLY29      -0.2866
     79  N          7.4870   29.9840    0.7010 N.3    44  CYS44      -0.1235
     80  CA         7.8010   29.4650   -0.6250 C.3    44  CYS44       0.1677
     81  C          8.9220   30.3000   -1.2090 C.2    44  CYS44       0.2270
     82  O          9.8480   29.7530   -1.7820 O.2    44  CYS44      -0.2867
     83  CB         6.5550   29.5260   -1.5270 C.3    44  CYS44       0.0956
     84  SG         5.4250   28.2750   -1.0190 S.3    44  CYS44      -0.0801
     85  N         12.0880   29.2290    0.4590 N.3    47  HIS47      -0.1226
     86  CA        12.3780   27.9110   -0.1430 C.3    47  HIS47       0.1752
     87  C         13.0020   28.0190   -1.5550 C.2    47  HIS47       0.2596
     88  O         13.9890   27.3430   -1.8040 O.2    47  HIS47      -0.2718
     89  CB        11.0830   27.0530   -0.1620 C.3    47  HIS47       0.0759
     90  CG        11.3190   25.6280   -0.5690 C.ar   47  HIS47       0.0818
     91  ND1       10.8960   25.1210   -1.7730 N.ar   47  HIS47      -0.2268
     92  CD2       12.0130   24.6330    0.0330 C.ar   47  HIS47       0.1154
     93  CE1       11.2290   23.8410   -1.8540 C.ar   47  HIS47       0.1986
     94  NE2       11.8930   23.5150   -0.7640 N.ar   47  HIS47      -0.2212
     95  N         12.4210   28.8430   -2.4630 N.am   48  ASP48      -0.1974
     96  CA        13.0330   29.1370   -3.7380 C.3    48  ASP48       0.1709
     97  C         14.4690   29.7030   -3.5880 C.2    48  ASP48       0.2293
     98  O         15.3850   29.2900   -4.2970 O.2    48  ASP48      -0.2864
     99  CB        12.1880   30.1580   -4.5110 C.3    48  ASP48       0.1436
    100  CG        10.9170   29.5430   -5.1490 C.2    48  ASP48       0.3671
    101  OD1       10.5850   28.3570   -4.8660 O.co2  48  ASP48      -0.2456
    102  OD2       10.2110   30.2770   -5.8980 O.co2  48  ASP48      -0.2456
    103  N         16.9580   26.8410   -2.5550 N.3    51  TYR51      -0.1241
    104  CA        17.3280   26.0730   -3.7280 C.3    51  TYR51       0.1605
    105  C         18.3050   26.8630   -4.6120 C.2    51  TYR51       0.2264
    106  O         19.2090   26.2780   -5.2110 O.2    51  TYR51      -0.2867
    107  CB        16.0460   25.7900   -4.5390 C.3    51  TYR51       0.0534
    108  CG        15.2370   24.5830   -4.1120 C.ar   51  TYR51      -0.0201
    109  CD1       15.5780   23.8480   -2.9680 C.ar   51  TYR51      -0.0009
    110  CD2       14.1330   24.1670   -4.8830 C.ar   51  TYR51      -0.0009
    111  CE1       14.8470   22.7140   -2.5820 C.ar   51  TYR51       0.0417
    112  CE2       13.3860   23.0490   -4.5100 C.ar   51  TYR51       0.0417
    113  CZ        13.7490   22.3360   -3.3490 C.ar   51  TYR51       0.1957
    114  OH        12.9940   21.2200   -2.9740 O.3    51  TYR51      -0.2866
    115  N         14.4230   19.0350   -7.4910 N.3    60  LYS60      -0.1245
    116  CA        13.2250   18.3110   -7.9790 C.3    60  LYS60       0.1561
    117  C         13.4100   16.8290   -8.1930 C.2    60  LYS60       0.2260
    118  O         12.4820   16.0760   -7.9670 O.2    60  LYS60      -0.2867
    119  CB        12.6170   18.9620   -9.2480 C.3    60  LYS60       0.0271
    120  CG        11.9780   20.3410   -8.9340 C.3    60  LYS60       0.0035
    121  CD        12.2090   21.3520  -10.0330 C.3    60  LYS60       0.0206
    122  CE        11.5620   22.7120   -9.6700 C.3    60  LYS60       0.1093
    123  NZ        10.3430   22.9820  -10.5210 N.3    60  LYS60      -0.1314
    124  N          5.5380   26.1770    6.7930 N.3    96  PHE96      -0.1241
    125  CA         4.1330   25.9010    6.4850 C.3    96  PHE96       0.1605
    126  C          3.3070   25.5730    7.7300 C.2    96  PHE96       0.2264
    127  O          2.2380   26.1230    7.9250 O.2    96  PHE96      -0.2867
    128  CB         3.9660   24.7340    5.4660 C.3    96  PHE96       0.0534
    129  CG         4.4260   25.0710    4.0740 C.ar   96  PHE96      -0.0203
    130  CD1        4.2930   26.3730    3.5670 C.ar   96  PHE96      -0.0042
    131  CD2        5.0100   24.0770    3.2630 C.ar   96  PHE96      -0.0042
    132  CE1        4.7420   26.6740    2.3050 C.ar   96  PHE96      -0.0003
    133  CE2        5.4830   24.3900    1.9570 C.ar   96  PHE96      -0.0003
    134  CZ         5.3290   25.6860    1.4950 C.ar   96  PHE96      -0.0000
@<TRIPOS>BOND
     1   123   122    1
     2   121   122    1
     3   121   120    1
     4   119   120    1
     5   119   116    1
     6    77    78    2
     7    77    76    1
     8   117   116    1
     9   117   118    2
    10     8     6    1
    11   116   115    1
    12    60    59    2
    13    44    42    1
    14    43    41    1
    15    76    75    1
    16    62    61    1
    17    59    58    1
    18    42    41    1
    19    61    58    1
    20     6     5    1
    21     6     7    1
    22     5     2    1
    23    41    38    1
    24    74    73    1
    25   102   100   ar
    26    58    57    1
    27    72    73   ar
    28    72    70   ar
    29    73    71   ar
    30    70    68   ar
    31    66    65    2
    32     1     2    1
    33   106   105    2
    34   100   101   ar
    35   100    99    1
    36    63    64    1
    37    64    65    1
    38    64    67    1
    39     2     3    1
    40    38    39    1
    41    38    37    1
    42   110   112   ar
    43   110   108   ar
    44    71    69   ar
    45   105   104    1
    46    57    47   am
    47   107   108    1
    48   107   104    1
    49    99    96    1
    50   112   113   ar
    51    39    40    2
    52    68    69   ar
    53    68    67    1
    54     3     4    2
    55    98    97    2
    56   108   109   ar
    57    37    34   am
    58    96    97    1
    59    96    95    1
    60   104   103    1
    61    48    47    2
    62    47    46    1
    63   113   114    1
    64   113   111   ar
    65    35    34    2
    66   109   111   ar
    67    34    33    1
    68    95    87   am
    69    45    46    1
    70    46    49    1
    71    36    33    1
    72    93    91   ar
    73    93    94   ar
    74    88    87    2
    75    82    81    2
    76    91    90   ar
    77    33    32    1
    78    16    18   ar
    79    16    14   ar
    80    87    86    1
    81    83    84    1
    82    83    80    1
    83    13    14    1
    84    13    10    1
    85    81    80    1
    86    49    50    1
    87    18    19   ar
    88    20    21    1
    89    20    11   am
    90    21    22    1
    91    94    92   ar
    92    14    15   ar
    93     9    10    1
    94    80    79    1
    95    90    89    1
    96    90    92   ar
    97    10    11    1
    98    89    86    1
    99    86    85    1
   100    11    12    2
   101    19    17   ar
   102    50    51   ar
   103    50    52   ar
   104    22    23    2
   105    31    29    1
   106    15    17   ar
   107    51    53   ar
   108    52    54   ar
   109   134   133   ar
   110   134   132   ar
   111    29    28    1
   112   133   131   ar
   113    53    55   ar
   114    54    55   ar
   115   132   130   ar
   116    28    30    1
   117    28    25    1
   118    55    56    1
   119   131   129   ar
   120   130   129   ar
   121    24    25    1
   122    25    26    1
   123   129   128    1
   124    26    27    2
   125   128   125    1
   126   125   124    1
   127   125   126    1
   128   126   127    2
