@<TRIPOS>MOLECULE
tmp/2queA01.pdb
 85 82 0 0 0
SMALL
GASTEIGER

@<TRIPOS>ATOM
      1  N         10.2250   15.7460    5.9690 N.3     2  LEU2       -0.1245
      2  CA         9.8390   17.1230    5.6790 C.3     2  LEU2        0.1561
      3  C         10.9120   17.8630    4.8930 C.2     2  LEU2        0.2260
      4  O         10.6030   18.7790    4.1340 O.2     2  LEU2       -0.2867
      5  CB         9.5410   17.9030    6.9580 C.3     2  LEU2        0.0270
      6  CG         8.0790   17.9400    7.4050 C.3     2  LEU2        0.0019
      7  CD1        7.1910   18.2340    6.2070 C.3     2  LEU2        0.0001
      8  CD2        7.6890   16.6150    8.0110 C.3     2  LEU2        0.0001
      9  N         10.4530   17.0500    1.2060 N.3     5  PHE5       -0.1241
     10  CA         9.1690   17.6000    0.7830 C.3     5  PHE5        0.1605
     11  C          9.1700   19.1220    0.5810 C.2     5  PHE5        0.2264
     12  O          8.6970   19.6000   -0.4480 O.2     5  PHE5       -0.2867
     13  CB         8.0560   17.1880    1.7670 C.3     5  PHE5        0.0534
     14  CG         6.6660   17.4280    1.2520 C.ar    5  PHE5       -0.0203
     15  CD1        6.3410   17.1210   -0.0710 C.ar    5  PHE5       -0.0042
     16  CD2        5.6730   17.9260    2.0910 C.ar    5  PHE5       -0.0042
     17  CE1        5.0480   17.2970   -0.5520 C.ar    5  PHE5       -0.0003
     18  CE2        4.3650   18.1060    1.6120 C.ar    5  PHE5       -0.0003
     19  CZ         4.0600   17.7910    0.2870 C.ar    5  PHE5       -0.0000
     20  N          8.6230   21.1360   -2.9520 N.3     9  ILE9       -0.1245
     21  CA         7.6200   22.1880   -3.0910 C.3     9  ILE9        0.1561
     22  C          8.2400   23.4980   -3.5950 C.2     9  ILE9        0.2260
     23  O          7.6680   24.1850   -4.4460 O.2     9  ILE9       -0.2867
     24  CB         6.9220   22.4430   -1.7360 C.3     9  ILE9        0.0252
     25  CG1        6.1920   21.1750   -1.2860 C.3     9  ILE9        0.0019
     26  CG2        5.9420   23.5840   -1.8470 C.3     9  ILE9        0.0019
     27  CD1        5.4630   21.3110    0.0530 C.3     9  ILE9        0.0001
     28  N          7.5760   25.9020    1.6630 N.3    17  ALA17      -0.1231
     29  CA         6.6200   25.1280    2.4110 C.3    17  ALA17       0.1694
     30  C          6.0940   25.9490    3.5690 C.2    17  ALA17       0.2591
     31  O          4.8890   26.0730    3.7800 O.2    17  ALA17      -0.2718
     32  CB         7.2550   23.8490    2.9330 C.3    17  ALA17       0.0304
     33  N          7.0190   26.5210    4.3290 N.am   18  ILE18      -0.1980
     34  CA         6.6930   27.3770    5.4600 C.3    18  ILE18       0.1595
     35  C          7.0500   28.7920    4.9750 C.2    18  ILE18       0.2287
     36  O          8.1820   29.0430    4.5530 O.2    18  ILE18      -0.2864
     37  CB         7.5450   26.9870    6.7030 C.3    18  ILE18       0.0276
     38  CG1        7.2530   25.5330    7.0940 C.3    18  ILE18       0.0022
     39  CG2        7.2610   27.9440    7.8630 C.3    18  ILE18       0.0022
     40  CD1        8.1580   24.9990    8.1780 C.3    18  ILE18       0.0001
     41  N          2.6340   26.8200    2.7210 N.3    21  TYR21      -0.1227
     42  CA         1.8580   25.5840    2.8440 C.3    21  TYR21       0.1736
     43  C          1.9140   24.8740    4.2010 C.2    21  TYR21       0.2596
     44  O          1.7290   23.6550    4.2710 O.2    21  TYR21      -0.2718
     45  CB         2.2740   24.5860    1.7530 C.3    21  TYR21       0.0548
     46  CG         2.0990   25.0890    0.3360 C.ar   21  TYR21      -0.0200
     47  CD1        3.1840   25.5810   -0.3920 C.ar   21  TYR21      -0.0009
     48  CD2        0.8540   25.0240   -0.2970 C.ar   21  TYR21      -0.0009
     49  CE1        3.0330   25.9840   -1.7190 C.ar   21  TYR21       0.0417
     50  CE2        0.6960   25.4270   -1.6180 C.ar   21  TYR21       0.0417
     51  CZ         1.7880   25.8980   -2.3250 C.ar   21  TYR21       0.1957
     52  OH         1.6370   26.2290   -3.6480 O.3    21  TYR21      -0.2866
     53  N          2.1500   25.6150    5.2780 N.am   22  SER22      -0.1952
     54  CA         2.2090   24.9950    6.5980 C.3    22  SER22       0.1924
     55  C          0.9940   25.3480    7.4590 C.2    22  SER22       0.2314
     56  O          0.7020   24.6730    8.4470 O.2    22  SER22      -0.2863
     57  CB         3.5060   25.3860    7.3140 C.3    22  SER22       0.2116
     58  OG         3.6720   26.7900    7.3810 O.3    22  SER22      -0.2180
     59  N         -0.9000   21.4370    6.7640 N.3    29  GLY29      -0.1210
     60  CA        -0.2380   21.6680    8.0390 C.3    29  GLY29       0.1956
     61  C         -0.7390   20.7700    9.1590 C.2    29  GLY29       0.2611
     62  O         -0.8610   19.5560    8.9910 O.2    29  GLY29      -0.2717
     63  N         -1.0250   21.3720   10.3100 N.am   30  TRP30      -0.1976
     64  CA        -1.5260   20.6390   11.4700 C.3    30  TRP30       0.1640
     65  C         -2.9120   20.1040   11.1130 C.2    30  TRP30       0.2290
     66  O         -3.3640   19.0920   11.6550 O.2    30  TRP30      -0.2864
     67  CB        -1.6420   21.5910   12.6670 C.3    30  TRP30       0.0576
     68  CG        -1.2260   21.0200   14.0020 C.ar   30  TRP30       0.0006
     69  CD1        0.0310   21.0260   14.5420 C.ar   30  TRP30       0.0946
     70  CD2       -2.0790   20.4240   14.9860 C.ar   30  TRP30       0.0152
     71  NE1        0.0110   20.4820   15.8020 N.ar   30  TRP30      -0.2442
     72  CE2       -1.2780   20.1020   16.1040 C.ar   30  TRP30       0.0810
     73  CE3       -3.4530   20.1300   15.0390 C.ar   30  TRP30       0.0012
     74  CZ2       -1.7900   19.5040   17.2590 C.ar   30  TRP30       0.0191
     75  CZ3       -3.9680   19.5330   16.1900 C.ar   30  TRP30       0.0001
     76  CH2       -3.1360   19.2290   17.2840 C.ar   30  TRP30       0.0015
     77  N          7.4090   11.9830    8.1740 N.3    60  LYS60      -0.1245
     78  CA         8.1230   13.1630    8.6650 C.3    60  LYS60       0.1561
     79  C          9.6420   13.0280    8.7830 C.2    60  LYS60       0.2260
     80  O         10.3780   13.9380    8.4060 O.2    60  LYS60      -0.2867
     81  CB         7.5890   13.5710   10.0380 C.3    60  LYS60       0.0271
     82  CG         6.4390   14.5560   10.0050 C.3    60  LYS60       0.0035
     83  CD         5.0970   13.8610   10.1420 C.3    60  LYS60       0.0206
     84  CE         3.9390   14.8390    9.9620 C.3    60  LYS60       0.1093
     85  NZ         3.1810   15.0100   11.2280 N.3    60  LYS60      -0.1314
@<TRIPOS>BOND
     1    23    22    2
     2    52    51    1
     3    22    21    1
     4    21    20    1
     5    21    24    1
     6    51    49   ar
     7    51    50   ar
     8    26    24    1
     9    24    25    1
    10    49    47   ar
    11    50    48   ar
    12    25    27    1
    13    17    15   ar
    14    17    19   ar
    15    12    11    2
    16    47    46   ar
    17    48    46   ar
    18    15    14   ar
    19    19    18   ar
    20    46    45    1
    21    11    10    1
    22    10     9    1
    23    10    13    1
    24    14    13    1
    25    14    16   ar
    26    18    16   ar
    27    28    29    1
    28    45    42    1
    29    29    32    1
    30    29    30    1
    31    41    42    1
    32    42    43    1
    33    30    31    2
    34    30    33   am
    35     4     3    2
    36    43    44    2
    37    43    53   am
    38    33    34    1
    39    36    35    2
    40     3     2    1
    41    35    34    1
    42    53    54    1
    43    34    37    1
    44     2     1    1
    45     2     5    1
    46     7     6    1
    47    54    57    1
    48    54    55    1
    49    37    38    1
    50    37    39    1
    51    59    60    1
    52     5     6    1
    53    38    40    1
    54    57    58    1
    55     6     8    1
    56    55    56    2
    57    60    61    1
    58    77    78    1
    59    80    79    2
    60    78    79    1
    61    78    81    1
    62    62    61    2
    63    61    63   am
    64    84    83    1
    65    84    85    1
    66    82    81    1
    67    82    83    1
    68    63    64    1
    69    65    64    1
    70    65    66    2
    71    64    67    1
    72    67    68    1
    73    68    69   ar
    74    68    70   ar
    75    69    71   ar
    76    70    73   ar
    77    70    72   ar
    78    73    75   ar
    79    71    72   ar
    80    72    74   ar
    81    75    76   ar
    82    74    76   ar
