@<TRIPOS>MOLECULE
tmp/2quhA00.pdb
 132 126 0 0 0
SMALL
GASTEIGER

@<TRIPOS>ATOM
      1  N        -31.0920   96.6930 -182.0250 N.3    63  TYR63      -0.1227
      2  CA       -30.8480   96.3510 -183.4080 C.3    63  TYR63       0.1736
      3  C        -29.3540   96.1530 -183.6550 C.2    63  TYR63       0.2596
      4  O        -28.5450   97.0340 -183.3670 O.2    63  TYR63      -0.2718
      5  CB       -31.4190   97.4520 -184.3300 C.3    63  TYR63       0.0548
      6  CG       -30.8190   97.4760 -185.7190 C.ar   63  TYR63      -0.0200
      7  CD1      -30.4950   96.2890 -186.3810 C.ar   63  TYR63      -0.0009
      8  CD2      -30.5190   98.6870 -186.3510 C.ar   63  TYR63      -0.0009
      9  CE1      -29.8750   96.3030 -187.6230 C.ar   63  TYR63       0.0417
     10  CE2      -29.8940   98.7110 -187.6100 C.ar   63  TYR63       0.0417
     11  CZ       -29.5710   97.5150 -188.2330 C.ar   63  TYR63       0.1957
     12  OH       -28.9130   97.5120 -189.4470 O.3    63  TYR63      -0.2866
     13  N        -28.9940   94.9760 -184.1510 N.am   64  THR64      -0.1939
     14  CA       -27.6100   94.6760 -184.4950 C.3    64  THR64       0.2028
     15  C        -27.6850   93.7500 -185.7070 C.2    64  THR64       0.2643
     16  O        -28.7780   93.3490 -186.1120 O.2    64  THR64      -0.2714
     17  CB       -26.8370   93.9900 -183.3370 C.3    64  THR64       0.1808
     18  OG1      -25.4260   94.0900 -183.5860 O.3    64  THR64      -0.2208
     19  CG2      -27.2200   92.5140 -183.2170 C.3    64  THR64       0.0379
     20  N        -26.5460   93.4180 -186.3020 N.am   65  GLY65      -0.1939
     21  CA       -26.5910   92.5520 -187.4670 C.3    65  GLY65       0.2014
     22  C        -25.3400   91.7480 -187.7310 C.2    65  GLY65       0.2639
     23  O        -24.3520   91.8460 -186.9990 O.2    65  GLY65      -0.2714
     24  N        -25.3880   90.9520 -188.7950 N.am   66  ARG66      -0.1963
     25  CA       -24.2640   90.1100 -189.1770 C.3    66  ARG66       0.1729
     26  C        -24.1270   89.9780 -190.6910 C.2    66  ARG66       0.2616
     27  O        -25.0970   89.6590 -191.3850 O.2    66  ARG66      -0.2715
     28  CB       -24.4360   88.7270 -188.5400 C.3    66  ARG66       0.0348
     29  CG       -23.6820   87.5880 -189.2080 C.3    66  ARG66       0.0492
     30  CD       -22.1800   87.7380 -189.1270 C.3    66  ARG66       0.2205
     31  NE       -21.5340   86.6180 -189.8070 N.pl3  66  ARG66      -0.0865
     32  CZ       -20.2350   86.5460 -190.0840 C.cat  66  ARG66       0.5346
     33  NH1      -19.4150   87.5350 -189.7420 N.pl3  66  ARG66       0.1354
     34  NH2      -19.7560   85.4790 -190.7050 N.pl3  66  ARG66       0.1354
     35  N        -22.9220   90.2420 -191.1970 N.am   67  GLY67      -0.1955
     36  CA       -22.6650   90.1100 -192.6230 C.3    67  GLY67       0.1869
     37  C        -22.1710   88.6920 -192.8690 C.2    67  GLY67       0.2309
     38  O        -20.9930   88.4180 -192.6520 O.2    67  GLY67      -0.2863
     39  N        -30.2560   91.8350 -188.0970 N.3    98  GLN98      -0.1245
     40  CA       -30.2030   91.8050 -189.5540 C.3    98  GLN98       0.1566
     41  C        -29.0860   90.9480 -190.1530 C.2    98  GLN98       0.2260
     42  O        -27.9050   91.1420 -189.8460 O.2    98  GLN98      -0.2867
     43  CB       -30.0870   93.2350 -190.0920 C.3    98  GLN98       0.0367
     44  CG       -30.0390   93.3230 -191.6100 C.3    98  GLN98       0.0905
     45  CD       -29.8980   94.7530 -192.1130 C.2    98  GLN98       0.2608
     46  OE1      -28.9990   95.4930 -191.6940 O.2    98  GLN98      -0.2717
     47  NE2      -30.7820   95.1460 -193.0230 N.am   98  GLN98      -0.0878
     48  N        -27.3360   90.3960 -193.4080 N.3   100  THR100     -0.1218
     49  CA       -27.1830   91.0110 -194.7220 C.3   100  THR100      0.1862
     50  C        -26.6490   90.1140 -195.8430 C.2   100  THR100      0.2287
     51  O        -25.5470   90.3290 -196.3500 O.2   100  THR100     -0.2866
     52  CB       -26.2940   92.2860 -194.6280 C.3   100  THR100      0.1770
     53  OG1      -24.9880   91.9350 -194.1540 O.3   100  THR100     -0.2211
     54  CG2      -26.9110   93.2940 -193.6660 C.3   100  THR100      0.0375
     55  N        -26.0130   92.0840 -198.9440 N.3   103  GLU103     -0.1231
     56  CA       -24.7680   92.8520 -198.9400 C.3   103  GLU103      0.1699
     57  C        -23.5860   91.9820 -199.3750 C.2   103  GLU103      0.2592
     58  O        -22.7410   92.4060 -200.1690 O.2   103  GLU103     -0.2718
     59  CB       -24.4880   93.4230 -197.5520 C.3   103  GLU103      0.0402
     60  CG       -23.0390   93.8280 -197.3570 C.3   103  GLU103      0.1161
     61  CD       -22.7470   94.3420 -195.9620 C.2   103  GLU103      0.3649
     62  OE1      -23.3790   93.8610 -194.9960 O.co2 103  GLU103     -0.2457
     63  OE2      -21.8670   95.2200 -195.8310 O.co2 103  GLU103     -0.2457
     64  N        -23.5300   90.7620 -198.8540 N.am  104  LYS104     -0.1980
     65  CA       -22.4420   89.8640 -199.1950 C.3   104  LYS104      0.1596
     66  C        -22.5400   89.4370 -200.6410 C.2   104  LYS104      0.2287
     67  O        -21.5310   89.3380 -201.3360 O.2   104  LYS104     -0.2864
     68  CB       -22.4380   88.6570 -198.2540 C.3   104  LYS104      0.0298
     69  CG       -22.1590   89.0540 -196.8090 C.3   104  LYS104      0.0038
     70  CD       -20.9370   89.9520 -196.7410 C.3   104  LYS104      0.0206
     71  CE       -20.8200   90.6460 -195.4010 C.3   104  LYS104      0.1093
     72  NZ       -19.6740   91.6170 -195.3820 N.3   104  LYS104     -0.1314
     73  N        -29.0190   98.8890 -194.5640 N.3   188  GLN188     -0.1245
     74  CA       -28.4940   98.6700 -193.2200 C.3   188  GLN188      0.1566
     75  C        -29.1050   99.7030 -192.2860 C.2   188  GLN188      0.2260
     76  O        -29.1430   99.5150 -191.0640 O.2   188  GLN188     -0.2867
     77  CB       -26.9660   98.7890 -193.1680 C.3   188  GLN188      0.0367
     78  CG       -26.4280   98.4400 -191.7700 C.3   188  GLN188      0.0905
     79  CD       -24.9880   97.9530 -191.7570 C.2   188  GLN188      0.2608
     80  OE1      -24.5570   97.2420 -192.6600 O.2   188  GLN188     -0.2717
     81  NE2      -24.2410   98.3340 -190.7250 N.am  188  GLN188     -0.0878
     82  N        -28.5650  100.6010 -181.0370 N.3   211  ILE211     -0.1245
     83  CA       -27.7230   99.7670 -181.8930 C.3   211  ILE211      0.1561
     84  C        -26.3230   99.4880 -181.3430 C.2   211  ILE211      0.2260
     85  O        -25.4550  100.3550 -181.3930 O.2   211  ILE211     -0.2867
     86  CB       -27.5150  100.4120 -183.2750 C.3   211  ILE211      0.0252
     87  CG1      -28.8540  100.8180 -183.8910 C.3   211  ILE211      0.0019
     88  CG2      -26.7640   99.4420 -184.1760 C.3   211  ILE211      0.0019
     89  CD1      -28.7080  101.4830 -185.2670 C.3   211  ILE211      0.0001
     90  N        -22.7390   97.9560 -181.6740 N.3   213  CYS213     -0.1221
     91  CA       -21.9330   97.4750 -182.7820 C.3   213  CYS213      0.1808
     92  C        -20.4500   97.7820 -182.6610 C.2   213  CYS213      0.2601
     93  O        -20.0290   98.5480 -181.7940 O.2   213  CYS213     -0.2717
     94  CB       -22.4530   98.1020 -184.0680 C.3   213  CYS213      0.0970
     95  SG       -22.4090   99.9160 -184.0210 S.3   213  CYS213     -0.0800
     96  N        -19.6700   97.1770 -183.5540 N.am  214  ALA214     -0.1979
     97  CA       -18.2300   97.3990 -183.6120 C.3   214  ALA214      0.1597
     98  C        -18.0840   98.8090 -184.1750 C.2   214  ALA214      0.2287
     99  O        -18.8010   99.1840 -185.1090 O.2   214  ALA214     -0.2864
    100  CB       -17.5780   96.3860 -184.5440 C.3   214  ALA214      0.0319
    101  N        -18.8220  100.1100 -187.7500 N.3   217  GLN217     -0.1245
    102  CA       -20.1310  100.1350 -188.3980 C.3   217  GLN217      0.1566
    103  C        -20.7410  101.5230 -188.2310 C.2   217  GLN217      0.2260
    104  O        -21.7130  101.8670 -188.8940 O.2   217  GLN217     -0.2867
    105  CB       -21.0700   99.0840 -187.7950 C.3   217  GLN217      0.0367
    106  CG       -20.6800   97.6470 -188.0880 C.3   217  GLN217      0.0905
    107  CD       -20.5140   97.3780 -189.5720 C.2   217  GLN217      0.2608
    108  OE1      -21.4490   97.5380 -190.3570 O.2   217  GLN217     -0.2717
    109  NE2      -19.3150   96.9670 -189.9660 N.am  217  GLN217     -0.0878
    110  N        -22.3400  103.7810 -191.1420 N.3   220  TYR220     -0.1227
    111  CA       -23.6970  103.4880 -191.5880 C.3   220  TYR220      0.1736
    112  C        -24.7090  104.2430 -190.7290 C.2   220  TYR220      0.2595
    113  O        -25.7010  104.7650 -191.2300 O.2   220  TYR220     -0.2718
    114  CB       -24.0200  101.9980 -191.4800 C.3   220  TYR220      0.0548
    115  CG       -23.3040  101.1110 -192.4660 C.ar  220  TYR220     -0.0200
    116  CD1      -22.1610  100.4080 -192.0930 C.ar  220  TYR220     -0.0009
    117  CD2      -23.7850  100.9500 -193.7630 C.ar  220  TYR220     -0.0009
    118  CE1      -21.5160   99.5620 -192.9880 C.ar  220  TYR220      0.0417
    119  CE2      -23.1480  100.1090 -194.6640 C.ar  220  TYR220      0.0417
    120  CZ       -22.0170   99.4180 -194.2700 C.ar  220  TYR220      0.1957
    121  OH       -21.3850   98.5770 -195.1500 O.3   220  TYR220     -0.2866
    122  N        -24.4460  104.3240 -189.4330 N.am  221  PHE221     -0.1976
    123  CA       -25.3920  104.9720 -188.5480 C.3   221  PHE221      0.1639
    124  C        -25.2370  106.4670 -188.3290 C.2   221  PHE221      0.2290
    125  O        -26.1420  107.1150 -187.8010 O.2   221  PHE221     -0.2864
    126  CB       -25.4320  104.1880 -187.2440 C.3   221  PHE221      0.0560
    127  CG       -25.6830  102.7260 -187.4660 C.ar  221  PHE221     -0.0200
    128  CD1      -26.7860  102.3120 -188.2200 C.ar  221  PHE221     -0.0042
    129  CD2      -24.7790  101.7660 -187.0180 C.ar  221  PHE221     -0.0042
    130  CE1      -26.9790  100.9710 -188.5300 C.ar  221  PHE221     -0.0003
    131  CE2      -24.9680  100.4160 -187.3280 C.ar  221  PHE221     -0.0003
    132  CZ       -26.0720  100.0220 -188.0880 C.ar  221  PHE221     -0.0000
@<TRIPOS>BOND
     1    67    66    2
     2    66    65    1
     3    58    57    2
     4    57    56    1
     5    57    64   am
     6    65    64    1
     7    65    68    1
     8    55    56    1
     9    56    59    1
    10    68    69    1
    11    59    60    1
    12    60    61    1
    13    69    70    1
    14    70    71    1
    15    51    50    2
    16    61    63   ar
    17    61    62   ar
    18    50    49    1
    19    71    72    1
    20   121   120    1
    21    49    52    1
    22    49    48    1
    23   119   120   ar
    24   119   117   ar
    25    52    53    1
    26    52    54    1
    27    73    74    1
    28   120   118   ar
    29   117   115   ar
    30    74    77    1
    31    74    75    1
    32    77    78    1
    33    47    45   am
    34   118   116   ar
    35    37    38    2
    36    37    36    1
    37    80    79    2
    38    36    35    1
    39   115   116   ar
    40   115   114    1
    41    75    76    2
    42    45    46    2
    43    45    44    1
    44    78    79    1
    45    79    81   am
    46    44    43    1
    47   111   114    1
    48   111   110    1
    49   111   112    1
    50    27    26    2
    51   113   112    2
    52    35    26   am
    53   112   122   am
    54    34    32    1
    55    26    25    1
    56   108   107    2
    57    41    42    2
    58    41    40    1
    59    43    40    1
    60    32    31    2
    61    32    33    1
    62   109   107   am
    63    31    30    1
    64   107   106    1
    65    40    39    1
    66    12    11    1
    67   122   123    1
    68    29    30    1
    69    29    28    1
    70    25    24    1
    71    25    28    1
    72   104   103    2
    73    24    22   am
    74   123   124    1
    75   123   126    1
    76   130   128   ar
    77   130   132   ar
    78   102   103    1
    79   102   105    1
    80   102   101    1
    81   124   125    2
    82    11     9   ar
    83    11    10   ar
    84   128   127   ar
    85   106   105    1
    86   132   131   ar
    87    22    21    1
    88    22    23    2
    89     9     7   ar
    90    10     8   ar
    91    21    20    1
    92   127   126    1
    93   127   129   ar
    94   131   129   ar
    95     7     6   ar
    96     8     6   ar
    97    20    15   am
    98    16    15    2
    99     6     5    1
   100    15    14    1
   101    89    87    1
   102    99    98    2
   103   100    97    1
   104    14    13    1
   105    14    17    1
   106     5     2    1
   107    88    86    1
   108    98    97    1
   109    13     3   am
   110    94    95    1
   111    94    91    1
   112    87    86    1
   113     3     2    1
   114     3     4    2
   115    97    96    1
   116    18    17    1
   117    96    92   am
   118     2     1    1
   119    17    19    1
   120    86    83    1
   121    91    92    1
   122    91    90    1
   123    92    93    2
   124    83    84    1
   125    83    82    1
   126    85    84    2
