@<TRIPOS>MOLECULE
tmp/2quiA01.pdb
 201 196 0 0 0
SMALL
GASTEIGER

@<TRIPOS>ATOM
      1  N       -108.0840  -35.0920 -509.1860 N.3     6  PRO6       -0.2102
      2  CA      -107.7270  -36.1230 -508.2000 C.3     6  PRO6        0.1504
      3  C       -108.7940  -37.1030 -507.7000 C.2     6  PRO6        0.2575
      4  O       -108.4580  -38.2000 -507.2440 O.2     6  PRO6       -0.2718
      5  CB      -107.1330  -35.3030 -507.0610 C.3     6  PRO6        0.0282
      6  CG      -106.4180  -34.2290 -507.7940 C.3     6  PRO6        0.0208
      7  CD      -107.4330  -33.8130 -508.8390 C.3     6  PRO6        0.0893
      8  N       -110.0680  -36.7300 -507.7730 N.am    7  TRP7       -0.1977
      9  CA      -111.1200  -37.6220 -507.2880 C.3     7  TRP7        0.1640
     10  C       -112.2360  -37.8960 -508.3030 C.2     7  TRP7        0.2290
     11  O       -112.4960  -39.0540 -508.6460 O.2     7  TRP7       -0.2864
     12  CB      -111.7150  -37.0620 -505.9890 C.3     7  TRP7        0.0576
     13  CG      -110.6840  -36.7500 -504.9240 C.ar    7  TRP7        0.0006
     14  CD1     -109.8000  -35.7060 -504.9130 C.ar    7  TRP7        0.0946
     15  CD2     -110.4260  -37.5030 -503.7310 C.ar    7  TRP7        0.0152
     16  NE1     -109.0090  -35.7630 -503.7890 N.ar    7  TRP7       -0.2442
     17  CE2     -109.3720  -36.8550 -503.0470 C.ar    7  TRP7        0.0810
     18  CE3     -110.9830  -38.6620 -503.1730 C.ar    7  TRP7        0.0012
     19  CZ2     -108.8630  -37.3280 -501.8340 C.ar    7  TRP7        0.0191
     20  CZ3     -110.4760  -39.1320 -501.9650 C.ar    7  TRP7        0.0001
     21  CH2     -109.4260  -38.4640 -501.3100 C.ar    7  TRP7        0.0015
     22  N       -101.7470  -46.0180 -504.0620 N.3    81  ARG81      -0.1231
     23  CA      -103.1240  -46.4680 -503.9440 C.3    81  ARG81       0.1694
     24  C       -103.8690  -45.8390 -502.7610 C.2    81  ARG81       0.2592
     25  O       -103.3690  -45.8190 -501.6360 O.2    81  ARG81      -0.2718
     26  CB      -103.1150  -47.9930 -503.8190 C.3    81  ARG81       0.0321
     27  CG      -104.2910  -48.6050 -503.0940 C.3    81  ARG81       0.0489
     28  CD      -105.5440  -48.5940 -503.9190 C.3    81  ARG81       0.2205
     29  NE      -106.6740  -49.0690 -503.1300 N.pl3  81  ARG81      -0.0865
     30  CZ      -107.9470  -48.8590 -503.4450 C.cat  81  ARG81       0.5346
     31  NH1     -108.2580  -48.1780 -504.5390 N.pl3  81  ARG81       0.1354
     32  NH2     -108.9070  -49.3220 -502.6630 N.pl3  81  ARG81       0.1354
     33  N       -105.0570  -45.3070 -503.0300 N.am   82  GLY82      -0.1957
     34  CA      -105.8670  -44.7230 -501.9770 C.3    82  GLY82       0.1869
     35  C       -106.7170  -45.8660 -501.4610 C.2    82  GLY82       0.2309
     36  O       -107.6830  -46.2520 -502.1160 O.2    82  GLY82      -0.2863
     37  N       -109.4620  -46.8620 -499.9330 N.3    84  SER84      -0.1202
     38  CA      -110.7820  -46.4470 -499.4690 C.3    84  SER84       0.2020
     39  C       -111.5760  -47.6060 -498.8920 C.2    84  SER84       0.2619
     40  O       -112.5080  -47.3880 -498.1280 O.2    84  SER84      -0.2717
     41  CB      -111.5710  -45.8240 -500.6180 C.3    84  SER84       0.2103
     42  OG      -110.8460  -44.7720 -501.2290 O.3    84  SER84      -0.2182
     43  N       -111.2210  -48.8300 -499.2810 N.am   85  SER85      -0.1951
     44  CA      -111.8960  -50.0230 -498.7740 C.3    85  SER85       0.1924
     45  C       -111.2010  -51.2800 -499.2590 C.2    85  SER85       0.2314
     46  O       -110.2830  -51.2080 -500.0600 O.2    85  SER85      -0.2863
     47  CB      -113.3700  -50.0540 -499.2030 C.3    85  SER85       0.2116
     48  OG      -113.5090  -50.3650 -500.5690 O.3    85  SER85      -0.2180
     49  N       -112.5150  -53.3810 -501.0550 N.3    87  ALA87      -0.1245
     50  CA      -113.0240  -53.6240 -502.4000 C.3    87  ALA87       0.1562
     51  C       -112.3100  -52.8190 -503.4810 C.2    87  ALA87       0.2260
     52  O       -112.3190  -51.5860 -503.4670 O.2    87  ALA87      -0.2867
     53  CB      -114.5210  -53.3380 -502.4490 C.3    87  ALA87       0.0290
     54  N       -111.6390  -52.6760 -507.8680 N.3    89  HIS89      -0.1241
     55  CA      -112.1600  -53.1330 -509.1560 C.3    89  HIS89       0.1621
     56  C       -111.0310  -53.2450 -510.1830 C.2    89  HIS89       0.2264
     57  O       -109.9070  -52.8110 -509.9230 O.2    89  HIS89      -0.2867
     58  CB      -113.2650  -52.1960 -509.6530 C.3    89  HIS89       0.0745
     59  CG      -112.8380  -50.7700 -509.7980 C.ar   89  HIS89       0.0817
     60  ND1     -113.5160  -49.7290 -509.2000 N.ar   89  HIS89      -0.2268
     61  CD2     -111.8270  -50.2080 -510.4970 C.ar   89  HIS89       0.1154
     62  CE1     -112.9420  -48.5860 -509.5260 C.ar   89  HIS89       0.1986
     63  NE2     -111.9150  -48.8490 -510.3130 N.ar   89  HIS89      -0.2212
     64  N       -110.4190  -51.6100 -512.7090 N.3    91  GLY91      -0.1210
     65  CA      -109.9020  -50.3160 -513.1220 C.3    91  GLY91       0.1956
     66  C       -108.6480  -49.9580 -512.3390 C.2    91  GLY91       0.2611
     67  O       -107.6620  -49.4770 -512.8970 O.2    91  GLY91      -0.2717
     68  N       -108.6890  -50.1970 -511.0350 N.am   92  HIS92      -0.1975
     69  CA      -107.5550  -49.9140 -510.1670 C.3    92  HIS92       0.1656
     70  C       -106.2680  -50.6090 -510.6090 C.2    92  HIS92       0.2291
     71  O       -105.1830  -50.0690 -510.4280 O.2    92  HIS92      -0.2864
     72  CB      -107.8810  -50.3420 -508.7320 C.3    92  HIS92       0.0771
     73  CG      -108.9520  -49.5190 -508.0910 C.ar   92  HIS92       0.0820
     74  ND1     -109.9950  -50.0750 -507.3850 N.ar   92  HIS92      -0.2267
     75  CD2     -109.1400  -48.1800 -508.0520 C.ar   92  HIS92       0.1154
     76  CE1     -110.7830  -49.1130 -506.9400 C.ar   92  HIS92       0.1986
     77  NE2     -110.2850  -47.9530 -507.3310 N.ar   92  HIS92      -0.2212
     78  N       -105.0330  -51.1650 -513.6270 N.3    94  ILE94      -0.1231
     79  CA      -104.3340  -50.6530 -514.8040 C.3    94  ILE94       0.1678
     80  C       -102.9250  -50.1280 -514.5250 C.2    94  ILE94       0.2434
     81  O       -101.9410  -50.6760 -515.0330 O.2    94  ILE94      -0.2733
     82  CB      -105.1520  -49.5560 -515.5230 C.3    94  ILE94       0.0265
     83  CG1     -106.4990  -50.1330 -515.9600 C.3    94  ILE94       0.0019
     84  CG2     -104.3820  -49.0230 -516.7340 C.3    94  ILE94       0.0020
     85  CD1     -106.3870  -51.4890 -516.6770 C.3    94  ILE94       0.0001
     86  N       -102.8040  -49.0680 -513.7070 N.am   95  PRO95      -0.2729
     87  CA      -101.4640  -48.5410 -513.4240 C.3    95  PRO95       0.1401
     88  C       -100.4920  -49.5790 -512.8380 C.2    95  PRO95       0.2269
     89  O        -99.3220  -49.6360 -513.2180 O.2    95  PRO95      -0.2865
     90  CB      -101.7480  -47.3760 -512.4740 C.3    95  PRO95       0.0296
     91  CG      -103.0230  -47.8070 -511.7790 C.3    95  PRO95       0.0237
     92  CD      -103.8310  -48.3680 -512.9130 C.3    95  PRO95       0.0939
     93  N       -107.1900  -41.3450 -496.8620 N.3   119  LYS119     -0.1245
     94  CA      -108.5350  -41.8620 -496.7580 C.3   119  LYS119      0.1561
     95  C       -109.1670  -41.6210 -495.4010 C.2   119  LYS119      0.2260
     96  O       -110.3910  -41.5170 -495.2970 O.2   119  LYS119     -0.2867
     97  CB      -108.5480  -43.3460 -497.1250 C.3   119  LYS119      0.0271
     98  CG      -108.1600  -43.5740 -498.5740 C.3   119  LYS119      0.0035
     99  CD      -108.9220  -42.6310 -499.4960 C.3   119  LYS119      0.0206
    100  CE      -108.2930  -42.5940 -500.8710 C.3   119  LYS119      0.1093
    101  NZ      -109.0100  -41.6530 -501.7760 N.3   119  LYS119     -0.1314
    102  N       -112.6190  -39.8530 -495.9210 N.3   123  LYS123     -0.1245
    103  CA      -113.7850  -40.7000 -495.6990 C.3   123  LYS123      0.1561
    104  C       -114.1240  -40.8790 -494.2300 C.2   123  LYS123      0.2260
    105  O       -113.3560  -40.5030 -493.3470 O.2   123  LYS123     -0.2867
    106  CB      -113.5670  -42.0710 -496.3330 C.3   123  LYS123      0.0271
    107  CG      -113.3380  -42.0300 -497.8320 C.3   123  LYS123      0.0035
    108  CD      -113.1530  -43.4410 -498.3790 C.3   123  LYS123      0.0206
    109  CE      -114.4490  -44.2520 -498.3390 C.3   123  LYS123      0.1093
    110  NZ      -115.4500  -43.7360 -499.3260 N.3   123  LYS123     -0.1314
    111  N       -102.6490  -42.7900 -513.1290 N.3   229  ALA229     -0.1245
    112  CA      -103.8190  -42.4590 -513.9160 C.3   229  ALA229      0.1562
    113  C       -103.7360  -40.9520 -514.0620 C.2   229  ALA229      0.2260
    114  O       -103.3290  -40.2460 -513.1380 O.2   229  ALA229     -0.2867
    115  CB      -105.0960  -42.8600 -513.1920 C.3   229  ALA229      0.0290
    116  N       -105.6270  -38.5570 -513.7270 N.3   231  ASP231     -0.1225
    117  CA      -106.1850  -37.7040 -512.6860 C.3   231  ASP231      0.1805
    118  C       -105.3010  -37.4700 -511.4560 C.2   231  ASP231      0.2597
    119  O       -105.6430  -36.6720 -510.5880 O.2   231  ASP231     -0.2718
    120  CB      -107.5600  -38.2250 -512.2750 C.3   231  ASP231      0.1424
    121  CG      -107.4880  -39.4890 -511.4740 C.2   231  ASP231      0.3668
    122  OD1     -106.5380  -40.2760 -511.6520 O.co2 231  ASP231     -0.2456
    123  OD2     -108.4060  -39.6990 -510.6620 O.co2 231  ASP231     -0.2456
    124  N       -104.1610  -38.1430 -511.3820 N.am  232  GLN232     -0.1979
    125  CA      -103.2650  -37.9350 -510.2550 C.3   232  GLN232      0.1601
    126  C       -102.2540  -36.8350 -510.5730 C.2   232  GLN232      0.2287
    127  O       -101.5990  -36.3020 -509.6780 O.2   232  GLN232     -0.2864
    128  CB      -102.5260  -39.2280 -509.9160 C.3   232  GLN232      0.0394
    129  CG      -103.4100  -40.2910 -509.3080 C.3   232  GLN232      0.0908
    130  CD      -104.2060  -39.7710 -508.1190 C.2   232  GLN232      0.2608
    131  OE1     -103.6410  -39.3090 -507.1210 O.2   232  GLN232     -0.2717
    132  NE2     -105.5280  -39.8400 -508.2230 N.am  232  GLN232     -0.0878
    133  N       -102.0150  -42.6160 -517.6910 N.3   256  SER256     -0.1202
    134  CA      -102.8770  -43.5980 -518.3310 C.3   256  SER256      0.2020
    135  C       -104.2890  -43.0270 -518.3790 C.2   256  SER256      0.2619
    136  O       -104.6610  -42.1780 -517.5630 O.2   256  SER256     -0.2717
    137  CB      -102.8990  -44.9080 -517.5550 C.3   256  SER256      0.2103
    138  OG      -103.5910  -44.7580 -516.3310 O.3   256  SER256     -0.2182
    139  N       -105.0600  -43.4850 -519.3560 N.am  257  THR257     -0.1938
    140  CA      -106.4390  -43.0600 -519.5080 C.3   257  THR257      0.2028
    141  C       -107.2670  -43.7330 -518.4140 C.2   257  THR257      0.2642
    142  O       -106.7500  -44.5290 -517.6250 O.2   257  THR257     -0.2714
    143  CB      -107.0020  -43.4850 -520.8870 C.3   257  THR257      0.1808
    144  OG1     -106.7900  -44.8890 -521.0760 O.3   257  THR257     -0.2208
    145  CG2     -106.3160  -42.7190 -522.0090 C.3   257  THR257      0.0379
    146  N       -108.5530  -43.4140 -518.3650 N.am  258  PHE258     -0.1959
    147  CA      -109.4390  -44.0080 -517.3680 C.3   258  PHE258      0.1771
    148  C       -109.9990  -45.3200 -517.8780 C.2   258  PHE258      0.2619
    149  O       -110.2770  -45.4590 -519.0710 O.2   258  PHE258     -0.2715
    150  CB      -110.6280  -43.0880 -517.0650 C.3   258  PHE258      0.0574
    151  CG      -110.2490  -41.7950 -516.4290 C.ar  258  PHE258     -0.0200
    152  CD1     -109.7190  -41.7700 -515.1470 C.ar  258  PHE258     -0.0042
    153  CD2     -110.3910  -40.6000 -517.1230 C.ar  258  PHE258     -0.0042
    154  CE1     -109.3300  -40.5720 -514.5610 C.ar  258  PHE258     -0.0003
    155  CE2     -110.0040  -39.3930 -516.5480 C.ar  258  PHE258     -0.0003
    156  CZ      -109.4710  -39.3800 -515.2620 C.ar  258  PHE258     -0.0000
    157  N       -110.1460  -46.2860 -516.9780 N.am  259  PHE259     -0.1974
    158  CA      -110.7530  -47.5500 -517.3510 C.3   259  PHE259      0.1639
    159  C       -112.2470  -47.1910 -517.3350 C.2   259  PHE259      0.2290
    160  O       -112.7740  -46.7030 -516.3310 O.2   259  PHE259     -0.2864
    161  CB      -110.4580  -48.6340 -516.3230 C.3   259  PHE259      0.0560
    162  CG      -110.8320  -50.0070 -516.7840 C.ar  259  PHE259     -0.0200
    163  CD1     -110.0340  -50.6850 -517.7000 C.ar  259  PHE259     -0.0042
    164  CD2     -112.0080  -50.6060 -516.3380 C.ar  259  PHE259     -0.0042
    165  CE1     -110.4030  -51.9450 -518.1730 C.ar  259  PHE259     -0.0003
    166  CE2     -112.3930  -51.8640 -516.8000 C.ar  259  PHE259     -0.0003
    167  CZ      -111.5920  -52.5390 -517.7200 C.ar  259  PHE259     -0.0000
    168  N       -115.5450  -42.8950 -515.6560 N.3   268  LYS268     -0.1231
    169  CA      -114.5570  -43.9200 -515.3930 C.3   268  LYS268      0.1693
    170  C       -115.2120  -44.8910 -514.4260 C.2   268  LYS268      0.2592
    171  O       -116.1820  -44.5500 -513.7470 O.2   268  LYS268     -0.2718
    172  CB      -113.2990  -43.3200 -514.7640 C.3   268  LYS268      0.0285
    173  CG      -113.4830  -42.7780 -513.3560 C.3   268  LYS268      0.0035
    174  CD      -112.1430  -42.3530 -512.7590 C.3   268  LYS268      0.0206
    175  CE      -112.2910  -41.8150 -511.3370 C.3   268  LYS268      0.1093
    176  NZ      -112.7390  -42.8600 -510.3750 N.3   268  LYS268     -0.1314
    177  N       -114.7040  -46.1110 -514.3810 N.am  269  MET269     -0.1965
    178  CA      -115.2500  -47.0930 -513.4690 C.3   269  MET269      0.1736
    179  C       -114.9770  -46.5710 -512.0560 C.2   269  MET269      0.2617
    180  O       -113.8700  -46.1230 -511.7630 O.2   269  MET269     -0.2715
    181  CB      -114.5560  -48.4360 -513.6840 C.3   269  MET269      0.0427
    182  CG      -114.9790  -49.4970 -512.7000 C.3   269  MET269      0.0599
    183  SD      -114.3460  -51.1490 -513.0510 S.3   269  MET269     -0.1393
    184  CE      -115.3120  -51.5750 -514.5300 C.3   269  MET269      0.0692
    185  N       -115.9800  -46.6020 -511.1840 N.am  270  SER270     -0.1936
    186  CA      -115.7740  -46.1260 -509.8200 C.3   270  SER270      0.2055
    187  C       -116.6110  -46.8920 -508.8120 C.2   270  SER270      0.2643
    188  O       -117.8150  -47.0700 -508.9960 O.2   270  SER270     -0.2714
    189  CB      -116.0920  -44.6290 -509.7110 C.3   270  SER270      0.2130
    190  OG      -115.8530  -44.1430 -508.4030 O.3   270  SER270     -0.2179
    191  N       -115.9610  -47.3450 -507.7450 N.am  271  ALA271     -0.1963
    192  CA      -116.6450  -48.0890 -506.6920 C.3   271  ALA271      0.1728
    193  C       -117.8210  -47.2670 -506.1630 C.2   271  ALA271      0.2616
    194  O       -118.7930  -47.8220 -505.6480 O.2   271  ALA271     -0.2715
    195  CB      -115.6710  -48.4160 -505.5630 C.3   271  ALA271      0.0334
    196  N       -117.7310  -45.9440 -506.3060 N.am  272  SER272     -0.1950
    197  CA      -118.7860  -45.0290 -505.8680 C.3   272  SER272      0.1924
    198  C       -120.0170  -45.3240 -506.7120 C.2   272  SER272      0.2314
    199  O       -120.9640  -44.5350 -506.7740 O.2   272  SER272     -0.2863
    200  CB      -118.3610  -43.5760 -506.0980 C.3   272  SER272      0.2116
    201  OG      -117.0000  -43.3720 -505.7630 O.3   272  SER272     -0.2180
@<TRIPOS>BOND
     1   145   143    1
     2   144   143    1
     3   143   140    1
     4   140   139    1
     5   140   141    1
     6   139   135   am
     7   149   148    2
     8   141   146   am
     9   141   142    2
    10   135   134    1
    11   135   136    2
    12   146   147    1
    13   134   133    1
    14   134   137    1
    15   165   167   ar
    16   165   163   ar
    17   148   147    1
    18   148   157   am
    19   167   166   ar
    20   163   162   ar
    21   137   138    1
    22   147   150    1
    23   158   159    1
    24   158   157    1
    25   158   161    1
    26   159   160    2
    27   153   155   ar
    28   153   151   ar
    29   150   151    1
    30   166   164   ar
    31   162   164   ar
    32   162   161    1
    33    84    82    1
    34    85    83    1
    35   155   156   ar
    36   151   152   ar
    37    83    82    1
    38   168   169    1
    39    82    79    1
    40   169   172    1
    41   169   170    1
    42   156   154   ar
    43   152   154   ar
    44    81    80    2
    45    79    80    1
    46    79    78    1
    47   172   173    1
    48   184   183    1
    49    80    86   am
    50   170   177   am
    51   170   171    2
    52   177   178    1
    53   113   112    1
    54   113   114    2
    55   112   115    1
    56   112   111    1
    57   116   117    1
    58    86    87    1
    59    86    92    1
    60   181   178    1
    61   181   182    1
    62   178   179    1
    63    87    88    1
    64    87    90    1
    65   173   174    1
    66    89    88    2
    67    65    64    1
    68    65    66    1
    69   183   182    1
    70    92    91    1
    71    67    66    2
    72   174   175    1
    73   117   120    1
    74   117   118    1
    75    90    91    1
    76    66    68   am
    77   120   121    1
    78   179   180    2
    79   179   185   am
    80   122   121   ar
    81   121   123   ar
    82   118   124   am
    83   118   119    2
    84   124   125    1
    85   175   176    1
    86   185   186    1
    87    68    69    1
    88    70    71    2
    89    70    69    1
    90   126   125    1
    91   126   127    2
    92    61    63   ar
    93    61    59   ar
    94    63    62   ar
    95   125   128    1
    96    56    57    2
    97    56    55    1
    98    69    72    1
    99   128   129    1
   100   186   189    1
   101   186   187    1
   102    59    58    1
   103    59    60   ar
   104   189   190    1
   105    58    55    1
   106    62    60   ar
   107   129   130    1
   108     1     7    1
   109     1     2    1
   110    55    54    1
   111   188   187    2
   112     7     6    1
   113   187   191   am
   114    72    73    1
   115    11    10    2
   116    10     9    1
   117   132   130   am
   118     2     3    1
   119     2     5    1
   120   130   131    2
   121    73    75   ar
   122    73    74   ar
   123    75    77   ar
   124     6     5    1
   125     8     3   am
   126     8     9    1
   127   191   192    1
   128     3     4    2
   129    74    76   ar
   130    77    76   ar
   131     9    12    1
   132   199   198    2
   133   198   197    1
   134   192   193    1
   135   192   195    1
   136   196   193   am
   137   196   197    1
   138   193   194    2
   139   200   197    1
   140   200   201    1
   141    12    13    1
   142    13    14   ar
   143    13    15   ar
   144    14    16   ar
   145    31    30    1
   146    22    23    1
   147    23    26    1
   148    23    24    1
   149    28    29    1
   150    28    27    1
   151    26    27    1
   152    16    17   ar
   153    15    18   ar
   154    15    17   ar
   155    51    52    2
   156    51    50    1
   157    30    29    2
   158    30    32    1
   159    18    20   ar
   160    17    19   ar
   161    33    24   am
   162    33    34    1
   163    24    25    2
   164    53    50    1
   165    50    49    1
   166    36    35    2
   167    34    35    1
   168    20    21   ar
   169    19    21   ar
   170   101   100    1
   171    42    41    1
   172   100    99    1
   173    41    38    1
   174    48    47    1
   175    46    45    2
   176    37    38    1
   177    99    98    1
   178    38    39    1
   179   110   109    1
   180    43    39   am
   181    43    44    1
   182    45    44    1
   183    47    44    1
   184    39    40    2
   185    98    97    1
   186   108   109    1
   187   108   107    1
   188   107   106    1
   189    97    94    1
   190    93    94    1
   191    94    95    1
   192   106   103    1
   193   102   103    1
   194   103   104    1
   195    95    96    2
   196   104   105    2
