@<TRIPOS>MOLECULE
tmp/2quiA00.pdb
 160 156 0 0 0
SMALL
GASTEIGER

@<TRIPOS>ATOM
      1  N       -108.0840  -35.0920 -509.1860 N.3     6  PRO6       -0.2102
      2  CA      -107.7270  -36.1230 -508.2000 C.3     6  PRO6        0.1504
      3  C       -108.7940  -37.1030 -507.7000 C.2     6  PRO6        0.2575
      4  O       -108.4580  -38.2000 -507.2440 O.2     6  PRO6       -0.2718
      5  CB      -107.1330  -35.3030 -507.0610 C.3     6  PRO6        0.0282
      6  CG      -106.4180  -34.2290 -507.7940 C.3     6  PRO6        0.0208
      7  CD      -107.4330  -33.8130 -508.8390 C.3     6  PRO6        0.0893
      8  N       -110.0680  -36.7300 -507.7730 N.am    7  TRP7       -0.1977
      9  CA      -111.1200  -37.6220 -507.2880 C.3     7  TRP7        0.1640
     10  C       -112.2360  -37.8960 -508.3030 C.2     7  TRP7        0.2290
     11  O       -112.4960  -39.0540 -508.6460 O.2     7  TRP7       -0.2864
     12  CB      -111.7150  -37.0620 -505.9890 C.3     7  TRP7        0.0576
     13  CG      -110.6840  -36.7500 -504.9240 C.ar    7  TRP7        0.0006
     14  CD1     -109.8000  -35.7060 -504.9130 C.ar    7  TRP7        0.0946
     15  CD2     -110.4260  -37.5030 -503.7310 C.ar    7  TRP7        0.0152
     16  NE1     -109.0090  -35.7630 -503.7890 N.ar    7  TRP7       -0.2442
     17  CE2     -109.3720  -36.8550 -503.0470 C.ar    7  TRP7        0.0810
     18  CE3     -110.9830  -38.6620 -503.1730 C.ar    7  TRP7        0.0012
     19  CZ2     -108.8630  -37.3280 -501.8340 C.ar    7  TRP7        0.0191
     20  CZ3     -110.4760  -39.1320 -501.9650 C.ar    7  TRP7        0.0001
     21  CH2     -109.4260  -38.4640 -501.3100 C.ar    7  TRP7        0.0015
     22  N        -92.3120  -45.0200 -508.7430 N.3    78  TYR78      -0.1227
     23  CA       -93.1690  -44.6100 -507.6410 C.3    78  TYR78       0.1736
     24  C        -94.6120  -44.4420 -508.0690 C.2    78  TYR78       0.2596
     25  O        -94.9270  -43.6400 -508.9550 O.2    78  TYR78      -0.2718
     26  CB       -92.6690  -43.3000 -507.0150 C.3    78  TYR78       0.0548
     27  CG       -93.7350  -42.5130 -506.2680 C.ar   78  TYR78      -0.0200
     28  CD1      -94.6490  -43.1540 -505.4210 C.ar   78  TYR78      -0.0009
     29  CD2      -93.8480  -41.1270 -506.4290 C.ar   78  TYR78      -0.0009
     30  CE1      -95.6520  -42.4390 -504.7670 C.ar   78  TYR78       0.0417
     31  CE2      -94.8420  -40.4000 -505.7740 C.ar   78  TYR78       0.0417
     32  CZ       -95.7450  -41.0590 -504.9450 C.ar   78  TYR78       0.1957
     33  OH       -96.7330  -40.3480 -504.2830 O.3    78  TYR78      -0.2866
     34  N        -95.4880  -45.2060 -507.4230 N.am   79  THR79      -0.1939
     35  CA       -96.9120  -45.1290 -507.6970 C.3    79  THR79       0.2028
     36  C        -97.6620  -45.3490 -506.3760 C.2    79  THR79       0.2643
     37  O        -97.0390  -45.6350 -505.3530 O.2    79  THR79      -0.2714
     38  CB       -97.3410  -46.1580 -508.7940 C.3    79  THR79       0.1808
     39  OG1      -98.5920  -45.7450 -509.3520 O.3    79  THR79      -0.2208
     40  CG2      -97.4760  -47.5610 -508.2340 C.3    79  THR79       0.0379
     41  N        -98.9830  -45.2030 -506.3790 N.am   80  GLY80      -0.1939
     42  CA       -99.7030  -45.3790 -505.1360 C.3    80  GLY80       0.2014
     43  C       -101.1500  -45.8060 -505.2330 C.2    80  GLY80       0.2639
     44  O       -101.7170  -45.9160 -506.3220 O.2    80  GLY80      -0.2714
     45  N       -101.7470  -46.0180 -504.0620 N.am   81  ARG81      -0.1963
     46  CA      -103.1240  -46.4680 -503.9440 C.3    81  ARG81       0.1729
     47  C       -103.8690  -45.8390 -502.7610 C.2    81  ARG81       0.2616
     48  O       -103.3690  -45.8190 -501.6360 O.2    81  ARG81      -0.2715
     49  CB      -103.1150  -47.9930 -503.8190 C.3    81  ARG81       0.0348
     50  CG      -104.2910  -48.6050 -503.0940 C.3    81  ARG81       0.0492
     51  CD      -105.5440  -48.5940 -503.9190 C.3    81  ARG81       0.2205
     52  NE      -106.6740  -49.0690 -503.1300 N.pl3  81  ARG81      -0.0865
     53  CZ      -107.9470  -48.8590 -503.4450 C.cat  81  ARG81       0.5346
     54  NH1     -108.2580  -48.1780 -504.5390 N.pl3  81  ARG81       0.1354
     55  NH2     -108.9070  -49.3220 -502.6630 N.pl3  81  ARG81       0.1354
     56  N       -105.0570  -45.3070 -503.0300 N.am   82  GLY82      -0.1955
     57  CA      -105.8670  -44.7230 -501.9770 C.3    82  GLY82       0.1869
     58  C       -106.7170  -45.8660 -501.4610 C.2    82  GLY82       0.2309
     59  O       -107.6830  -46.2520 -502.1160 O.2    82  GLY82      -0.2863
     60  N       -102.8040  -49.0680 -513.7070 N.3    95  PRO95      -0.2116
     61  CA      -101.4640  -48.5410 -513.4240 C.3    95  PRO95       0.1372
     62  C       -100.4920  -49.5790 -512.8380 C.2    95  PRO95       0.2244
     63  O        -99.3220  -49.6360 -513.2180 O.2    95  PRO95      -0.2868
     64  CB      -101.7480  -47.3760 -512.4740 C.3    95  PRO95       0.0268
     65  CG      -103.0230  -47.8070 -511.7790 C.3    95  PRO95       0.0207
     66  CD      -103.8310  -48.3680 -512.9130 C.3    95  PRO95       0.0892
     67  N        -96.9490  -46.1640 -502.4630 N.3   113  GLN113     -0.1245
     68  CA       -97.5770  -45.4780 -501.3400 C.3   113  GLN113      0.1566
     69  C        -99.0450  -45.8520 -501.1010 C.2   113  GLN113      0.2260
     70  O        -99.8770  -45.8040 -502.0140 O.2   113  GLN113     -0.2867
     71  CB       -97.4650  -43.9580 -501.5290 C.3   113  GLN113      0.0367
     72  CG       -98.1100  -43.1350 -500.4180 C.3   113  GLN113      0.0905
     73  CD       -97.9150  -41.6470 -500.6240 C.2   113  GLN113      0.2608
     74  OE1      -98.2660  -41.1060 -501.6730 O.2   113  GLN113     -0.2717
     75  NE2      -97.3510  -40.9730 -499.6210 N.am  113  GLN113     -0.0878
     76  N       -101.9330  -44.5180 -499.1400 N.3   115  THR115     -0.1218
     77  CA      -102.4080  -43.3510 -498.4050 C.3   115  THR115      0.1862
     78  C       -103.5380  -43.5610 -497.3880 C.2   115  THR115      0.2287
     79  O       -104.6050  -42.9420 -497.4940 O.2   115  THR115     -0.2866
     80  CB      -102.8260  -42.2470 -499.3900 C.3   115  THR115      0.1770
     81  OG1     -103.8180  -42.7580 -500.2880 O.3   115  THR115     -0.2211
     82  CG2     -101.6290  -41.7700 -500.1890 C.3   115  THR115      0.0375
     83  N       -104.6860  -40.3620 -495.9880 N.3   118  GLU118     -0.1231
     84  CA      -105.5000  -39.6210 -496.9480 C.3   118  GLU118      0.1699
     85  C       -106.9570  -40.0380 -496.8040 C.2   118  GLU118      0.2592
     86  O       -107.8480  -39.2050 -496.6430 O.2   118  GLU118     -0.2718
     87  CB      -105.0570  -39.9320 -498.3800 C.3   118  GLU118      0.0402
     88  CG      -105.7030  -39.0440 -499.4220 C.3   118  GLU118      0.1161
     89  CD      -105.6850  -39.6360 -500.8250 C.2   118  GLU118      0.3649
     90  OE1     -104.7370  -40.3600 -501.1890 O.co2 118  GLU118     -0.2457
     91  OE2     -106.6300  -39.3550 -501.5800 O.co2 118  GLU118     -0.2457
     92  N       -107.1900  -41.3450 -496.8620 N.am  119  LYS119     -0.1980
     93  CA      -108.5350  -41.8620 -496.7580 C.3   119  LYS119      0.1596
     94  C       -109.1670  -41.6210 -495.4010 C.2   119  LYS119      0.2287
     95  O       -110.3910  -41.5170 -495.2970 O.2   119  LYS119     -0.2864
     96  CB      -108.5480  -43.3460 -497.1250 C.3   119  LYS119      0.0298
     97  CG      -108.1600  -43.5740 -498.5740 C.3   119  LYS119      0.0038
     98  CD      -108.9220  -42.6310 -499.4960 C.3   119  LYS119      0.0206
     99  CE      -108.2930  -42.5940 -500.8710 C.3   119  LYS119      0.1093
    100  NZ      -109.0100  -41.6530 -501.7760 N.3   119  LYS119     -0.1314
    101  N        -98.2690  -36.8920 -500.5110 N.3   203  GLN203     -0.1245
    102  CA       -98.2060  -37.6050 -501.7760 C.3   203  GLN203      0.1566
    103  C        -97.0370  -37.1470 -502.6620 C.2   203  GLN203      0.2260
    104  O        -96.5400  -37.9130 -503.4980 O.2   203  GLN203     -0.2867
    105  CB       -99.5340  -37.4670 -502.5290 C.3   203  GLN203      0.0367
    106  CG       -99.5460  -38.1920 -503.8750 C.3   203  GLN203      0.0905
    107  CD      -100.9460  -38.5040 -504.3840 C.2   203  GLN203      0.2608
    108  OE1     -101.9100  -38.4560 -503.6260 O.2   203  GLN203     -0.2717
    109  NE2     -101.0630  -38.8090 -505.6730 N.am  203  GLN203     -0.0878
    110  N        -92.9760  -41.6710 -512.1800 N.3   226  ILE226     -0.1245
    111  CA       -94.2800  -41.9490 -511.6000 C.3   226  ILE226      0.1561
    112  C        -95.3580  -42.3600 -512.6000 C.2   226  ILE226      0.2260
    113  O        -95.9120  -41.5180 -513.3230 O.2   226  ILE226     -0.2867
    114  CB       -94.8270  -40.7180 -510.8410 C.3   226  ILE226      0.0252
    115  CG1      -93.7960  -40.2110 -509.8320 C.3   226  ILE226      0.0019
    116  CG2      -96.1290  -41.0740 -510.1440 C.3   226  ILE226      0.0019
    117  CD1      -94.2190  -38.9160 -509.1470 C.3   226  ILE226      0.0001
    118  N        -98.9920  -43.2500 -513.4100 N.3   228  CYS228     -0.1221
    119  CA      -100.2730  -43.0540 -512.7340 C.3   228  CYS228      0.1808
    120  C       -101.4380  -42.7250 -513.6700 C.2   228  CYS228      0.2601
    121  O       -101.2480  -42.4240 -514.8530 O.2   228  CYS228     -0.2717
    122  CB      -100.1470  -41.9230 -511.7220 C.3   228  CYS228      0.0970
    123  SG       -99.7590  -40.3370 -512.4930 S.3   228  CYS228     -0.0800
    124  N       -102.6490  -42.7900 -513.1290 N.am  229  ALA229     -0.1979
    125  CA      -103.8190  -42.4590 -513.9160 C.3   229  ALA229      0.1597
    126  C       -103.7360  -40.9520 -514.0620 C.2   229  ALA229      0.2287
    127  O       -103.3290  -40.2460 -513.1380 O.2   229  ALA229     -0.2864
    128  CB      -105.0960  -42.8600 -513.1920 C.3   229  ALA229      0.0319
    129  N       -104.1610  -38.1430 -511.3820 N.3   232  GLN232     -0.1245
    130  CA      -103.2650  -37.9350 -510.2550 C.3   232  GLN232      0.1566
    131  C       -102.2540  -36.8350 -510.5730 C.2   232  GLN232      0.2260
    132  O       -101.5990  -36.3020 -509.6780 O.2   232  GLN232     -0.2867
    133  CB      -102.5260  -39.2280 -509.9160 C.3   232  GLN232      0.0367
    134  CG      -103.4100  -40.2910 -509.3080 C.3   232  GLN232      0.0905
    135  CD      -104.2060  -39.7710 -508.1190 C.2   232  GLN232      0.2608
    136  OE1     -103.6410  -39.3090 -507.1210 O.2   232  GLN232     -0.2717
    137  NE2     -105.5280  -39.8400 -508.2230 N.am  232  GLN232     -0.0878
    138  N       -101.1340  -33.6020 -508.5150 N.3   235  TYR235     -0.1227
    139  CA      -100.2950  -33.7320 -507.3250 C.3   235  TYR235      0.1736
    140  C        -98.8330  -33.5790 -507.7190 C.2   235  TYR235      0.2595
    141  O        -98.0340  -32.9580 -507.0090 O.2   235  TYR235     -0.2718
    142  CB      -100.4530  -35.1120 -506.6650 C.3   235  TYR235      0.0548
    143  CG      -101.7260  -35.3060 -505.8800 C.ar  235  TYR235     -0.0200
    144  CD1     -102.8560  -35.8520 -506.4750 C.ar  235  TYR235     -0.0009
    145  CD2     -101.8060  -34.9160 -504.5410 C.ar  235  TYR235     -0.0009
    146  CE1     -104.0400  -36.0060 -505.7610 C.ar  235  TYR235      0.0417
    147  CE2     -102.9830  -35.0620 -503.8150 C.ar  235  TYR235      0.0417
    148  CZ      -104.0990  -35.6080 -504.4310 C.ar  235  TYR235      0.1957
    149  OH      -105.2760  -35.7510 -503.7280 O.3   235  TYR235     -0.2866
    150  N        -98.4880  -34.1450 -508.8690 N.am  236  PHE236     -0.1976
    151  CA       -97.1130  -34.1250 -509.3280 C.3   236  PHE236      0.1639
    152  C        -96.7690  -32.9280 -510.2000 C.2   236  PHE236      0.2290
    153  O        -95.5950  -32.6310 -510.4420 O.2   236  PHE236     -0.2864
    154  CB       -96.8210  -35.4650 -509.9960 C.3   236  PHE236      0.0560
    155  CG       -97.2010  -36.6360 -509.1270 C.ar  236  PHE236     -0.0200
    156  CD1      -98.1590  -37.5630 -509.5440 C.ar  236  PHE236     -0.0042
    157  CD2      -96.6500  -36.7710 -507.8490 C.ar  236  PHE236     -0.0042
    158  CE1      -98.5620  -38.6020 -508.6970 C.ar  236  PHE236     -0.0003
    159  CE2      -97.0480  -37.8010 -507.0040 C.ar  236  PHE236     -0.0003
    160  CZ       -98.0030  -38.7160 -507.4260 C.ar  236  PHE236     -0.0000
@<TRIPOS>BOND
     1   121   120    2
     2   126   125    1
     3   126   127    2
     4   125   128    1
     5   125   124    1
     6    60    61    1
     7    60    66    1
     8   120   124   am
     9   120   119    1
    10    61    62    1
    11    61    64    1
    12   118   119    1
    13   113   112    2
    14    63    62    2
    15    66    65    1
    16   119   122    1
    17   112   111    1
    18   123   122    1
    19    64    65    1
    20   110   111    1
    21   111   114    1
    22   129   130    1
    23   114   116    1
    24   114   115    1
    25   131   130    1
    26   131   132    2
    27   153   152    2
    28   130   133    1
    29   152   151    1
    30   154   151    1
    31   154   155    1
    32   133   134    1
    33   115   117    1
    34   156   155   ar
    35   156   158   ar
    36    39    38    1
    37   151   150    1
    38   134   135    1
    39     1     7    1
    40     1     2    1
    41   155   157   ar
    42    25    24    2
    43   150   140   am
    44     7     6    1
    45    38    40    1
    46    38    35    1
    47    22    23    1
    48   158   160   ar
    49    11    10    2
    50   138   139    1
    51    10     9    1
    52   137   135   am
    53     2     3    1
    54     2     5    1
    55   135   136    2
    56    24    23    1
    57    24    34   am
    58   157   159   ar
    59     6     5    1
    60     8     3   am
    61     8     9    1
    62   140   139    1
    63   140   141    2
    64     3     4    2
    65    35    34    1
    66    35    36    1
    67    23    26    1
    68   160   159   ar
    69   139   142    1
    70     9    12    1
    71    26    27    1
    72   142   143    1
    73   144   143   ar
    74   144   146   ar
    75    29    27   ar
    76    29    31   ar
    77    41    36   am
    78    41    42    1
    79    36    37    2
    80    44    43    2
    81    27    28   ar
    82    12    13    1
    83   143   145   ar
    84    31    32   ar
    85   146   148   ar
    86   109   107   am
    87    28    30   ar
    88    43    42    1
    89    43    45   am
    90    32    30   ar
    91    32    33    1
    92    13    14   ar
    93    13    15   ar
    94    14    16   ar
    95   145   147   ar
    96    54    53    1
    97   148   147   ar
    98   148   149    1
    99   107   106    1
   100   107   108    2
   101    45    46    1
   102    46    49    1
   103    46    47    1
   104    51    52    1
   105    51    50    1
   106   106   105    1
   107    49    50    1
   108    16    17   ar
   109    15    18   ar
   110    15    17   ar
   111   104   103    2
   112    53    52    2
   113    53    55    1
   114    18    20   ar
   115    17    19   ar
   116    56    47   am
   117    56    57    1
   118    47    48    2
   119   103   102    1
   120   105   102    1
   121    67    68    1
   122    59    58    2
   123    70    69    2
   124    57    58    1
   125    20    21   ar
   126    19    21   ar
   127   102   101    1
   128   100    99    1
   129    74    73    2
   130    91    89   ar
   131    71    68    1
   132    71    72    1
   133    68    69    1
   134    90    89   ar
   135    99    98    1
   136    89    88    1
   137    73    72    1
   138    73    75   am
   139    81    80    1
   140    82    80    1
   141    98    97    1
   142    88    87    1
   143    80    77    1
   144    76    77    1
   145    97    96    1
   146    77    78    1
   147    87    84    1
   148    79    78    2
   149    96    93    1
   150    84    85    1
   151    84    83    1
   152    92    85   am
   153    92    93    1
   154    85    86    2
   155    93    94    1
   156    94    95    2
