@<TRIPOS>MOLECULE
tmp/2qv4A00.pdb
 238 232 0 0 0
SMALL
GASTEIGER

@<TRIPOS>ATOM
      1  N          0.0800   51.3490   28.0020 N.3    50  ILE50      -0.1245
      2  CA         0.5520   51.0210   29.3360 C.3    50  ILE50       0.1561
      3  C          0.1360   52.0740   30.3400 C.2    50  ILE50       0.2260
      4  O          0.3520   53.2660   30.0970 O.2    50  ILE50      -0.2867
      5  CB         2.0770   50.8380   29.3160 C.3    50  ILE50       0.0252
      6  CG1        2.4120   49.6690   28.4280 C.3    50  ILE50       0.0019
      7  CG2        2.6020   50.6030   30.7150 C.3    50  ILE50       0.0019
      8  CD1        3.8650   49.5350   28.1230 C.3    50  ILE50       0.0001
      9  N          0.8060   51.5590   33.7980 N.3    52  ASN52      -0.1240
     10  CA         1.6610   51.4520   34.9660 C.3    52  ASN52       0.1653
     11  C          3.1030   51.2650   34.5120 C.2    52  ASN52       0.2266
     12  O          3.5090   50.1280   34.2340 O.2    52  ASN52      -0.2867
     13  CB         1.2180   50.3000   35.8360 C.3    52  ASN52       0.1155
     14  CG         1.8580   50.3320   37.2160 C.2    52  ASN52       0.2627
     15  OD1        1.9130   51.3350   37.9410 O.2    52  ASN52      -0.2716
     16  ND2        2.3600   49.1670   37.6060 N.am   52  ASN52      -0.0877
     17  N          6.5690   57.0390   27.4660 N.3    57  TRP57      -0.1227
     18  CA         6.9570   57.1870   26.0670 C.3    57  TRP57       0.1737
     19  C          7.3660   55.8440   25.4770 C.2    57  TRP57       0.2595
     20  O          7.0290   55.5840   24.3150 O.2    57  TRP57      -0.2718
     21  CB         8.1050   58.1690   25.9200 C.3    57  TRP57       0.0564
     22  CG         9.3500   57.7620   26.6550 C.ar   57  TRP57       0.0003
     23  CD1        9.6570   58.0330   27.9580 C.ar   57  TRP57       0.0946
     24  CD2       10.4130   56.9380   26.1570 C.ar   57  TRP57       0.0152
     25  NE1       10.8420   57.4240   28.3060 N.ar   57  TRP57      -0.2442
     26  CE2       11.3280   56.7450   27.2200 C.ar   57  TRP57       0.0810
     27  CE3       10.6820   56.3390   24.9150 C.ar   57  TRP57       0.0012
     28  CZ2       12.4920   55.9780   27.0810 C.ar   57  TRP57       0.0191
     29  CZ3       11.8430   55.5740   24.7750 C.ar   57  TRP57       0.0001
     30  CH2       12.7330   55.4020   25.8540 C.ar   57  TRP57       0.0015
     31  N          8.0510   55.0070   26.2540 N.am   58  TRP58      -0.1976
     32  CA         8.4980   53.7290   25.7230 C.3    58  TRP58       0.1640
     33  C          7.4200   52.7290   25.3740 C.2    58  TRP58       0.2290
     34  O          7.7700   51.6680   24.8450 O.2    58  TRP58      -0.2864
     35  CB         9.5310   53.0780   26.6290 C.3    58  TRP58       0.0576
     36  CG         9.2670   53.1130   28.1110 C.ar   58  TRP58       0.0006
     37  CD1        9.8380   53.9560   29.0220 C.ar   58  TRP58       0.0946
     38  CD2        8.4350   52.2180   28.8620 C.ar   58  TRP58       0.0152
     39  NE1        9.4220   53.6360   30.2920 N.ar   58  TRP58      -0.2442
     40  CE2        8.5600   52.5730   30.2220 C.ar   58  TRP58       0.0810
     41  CE3        7.6000   51.1480   28.5180 C.ar   58  TRP58       0.0012
     42  CZ2        7.8810   51.8950   31.2400 C.ar   58  TRP58       0.0191
     43  CZ3        6.9240   50.4730   29.5340 C.ar   58  TRP58       0.0001
     44  CH2        7.0700   50.8490   30.8750 C.ar   58  TRP58       0.0015
     45  N          7.3420   51.4110   21.7140 N.3    61  TYR61      -0.1227
     46  CA         8.3390   50.4920   21.1700 C.3    61  TYR61       0.1736
     47  C          7.9050   49.0930   21.5610 C.2    61  TYR61       0.2595
     48  O          8.7290   48.1750   21.6320 O.2    61  TYR61      -0.2718
     49  CB         9.6990   50.8480   21.7170 C.3    61  TYR61       0.0548
     50  CG        10.1880   52.1550   21.1400 C.ar   61  TYR61      -0.0200
     51  CD1       10.7620   52.1970   19.8720 C.ar   61  TYR61      -0.0009
     52  CD2        9.9410   53.3690   21.7910 C.ar   61  TYR61      -0.0009
     53  CE1       11.0630   53.4080   19.2560 C.ar   61  TYR61       0.0417
     54  CE2       10.2360   54.5900   21.1780 C.ar   61  TYR61       0.0417
     55  CZ        10.7920   54.5960   19.9060 C.ar   61  TYR61       0.1957
     56  OH        11.0330   55.7840   19.2550 O.3    61  TYR61      -0.2866
     57  N          6.6000   48.9720   21.7570 N.am   62  GLN62      -0.1979
     58  CA         5.9420   47.7430   22.1810 C.3    62  GLN62       0.1601
     59  C          4.7710   47.5270   21.2300 C.2    62  GLN62       0.2287
     60  O          3.6240   47.7200   21.6350 O.2    62  GLN62      -0.2864
     61  CB         5.4440   47.9890   23.5600 C.3    62  GLN62       0.0394
     62  CG         5.0970   46.7640   24.2080 C.3    62  GLN62       0.0908
     63  CD         5.8840   46.5930   25.4730 C.2    62  GLN62       0.2608
     64  OE1        5.7810   45.6450   26.2470 O.2    62  GLN62      -0.2717
     65  NE2        6.7470   47.5690   25.6850 N.am   62  GLN62      -0.0878
     66  N         10.6890   43.3030   17.2000 N.3   100  HIS100     -0.1241
     67  CA         9.8570   42.6480   18.1940 C.3   100  HIS100      0.1621
     68  C          8.4400   43.1620   18.2670 C.2   100  HIS100      0.2264
     69  O          8.1170   44.1530   17.6020 O.2   100  HIS100     -0.2867
     70  CB        10.4870   42.8660   19.5320 C.3   100  HIS100      0.0745
     71  CG        10.7770   44.3090   19.8120 C.ar  100  HIS100      0.0817
     72  ND1       11.9840   44.9010   19.5020 N.ar  100  HIS100     -0.2268
     73  CD2        9.9820   45.3020   20.2790 C.ar  100  HIS100      0.1154
     74  CE1       11.9190   46.1950   19.7630 C.ar  100  HIS100      0.1986
     75  NE2       10.7150   46.4650   20.2350 N.ar  100  HIS100     -0.2212
     76  N          6.1410   43.2730   25.1880 N.3   103  GLY103     -0.1210
     77  CA         6.7370   42.4630   26.2320 C.3   103  GLY103      0.1956
     78  C          5.9560   41.1760   26.4380 C.2   103  GLY103      0.2612
     79  O          4.7220   41.1850   26.3540 O.2   103  GLY103     -0.2717
     80  N          6.6710   40.0890   26.7200 N.am  104  ASN104     -0.1960
     81  CA         6.0530   38.7770   26.9110 C.3   104  ASN104      0.1819
     82  C          5.1810   38.6650   28.1600 C.2   104  ASN104      0.2621
     83  O          4.3290   37.7630   28.2120 O.2   104  ASN104     -0.2715
     84  CB         7.1310   37.6940   26.9120 C.3   104  ASN104      0.1195
     85  CG         7.9480   37.6570   28.2050 C.2   104  ASN104      0.2630
     86  OD1        7.5970   37.0710   29.2330 O.2   104  ASN104     -0.2716
     87  ND2        9.0970   38.3250   28.1470 N.am  104  ASN104     -0.0877
     88  N          5.3790   39.5630   29.1200 N.am  105  ALA105     -0.1963
     89  CA         4.6100   39.5360   30.3570 C.3   105  ALA105      0.1728
     90  C          3.4550   40.5270   30.3930 C.2   105  ALA105      0.2616
     91  O          2.7690   40.5820   31.4190 O.2   105  ALA105     -0.2715
     92  CB         5.5390   39.7730   31.5470 C.3   105  ALA105      0.0334
     93  N          3.2540   41.2880   29.3210 N.am  106  VAL106     -0.1977
     94  CA         2.1580   42.2510   29.2680 C.3   106  VAL106      0.1596
     95  C          0.8680   41.4540   29.2570 C.2   106  VAL106      0.2287
     96  O          0.8150   40.4520   28.5420 O.2   106  VAL106     -0.2864
     97  CB         2.2340   43.1280   27.9840 C.3   106  VAL106      0.0276
     98  CG1        0.8940   43.8320   27.7390 C.3   106  VAL106      0.0022
     99  CG2        3.3430   44.1610   28.1190 C.3   106  VAL106      0.0022
    100  N         15.6380   35.6810   27.4300 N.3   146  ASP146     -0.1239
    101  CA        15.9620   37.0820   27.1600 C.3   146  ASP146      0.1674
    102  C         17.4460   37.1780   26.8520 C.2   146  ASP146      0.2266
    103  O         18.1670   36.2000   27.0900 O.2   146  ASP146     -0.2867
    104  CB        15.6680   37.9650   28.3640 C.3   146  ASP146      0.1410
    105  CG        14.1930   37.9920   28.7450 C.2   146  ASP146      0.3668
    106  OD1       13.3300   37.8120   27.8590 O.co2 146  ASP146     -0.2456
    107  OD2       13.8970   38.2170   29.9400 O.co2 146  ASP146     -0.2456
    108  N         25.9360   40.1950   25.8760 N.3   150  TYR150     -0.1241
    109  CA        26.2210   40.8280   24.5980 C.3   150  TYR150      0.1605
    110  C         27.5020   40.3680   23.9360 C.2   150  TYR150      0.2264
    111  O         27.7920   40.8390   22.8290 O.2   150  TYR150     -0.2867
    112  CB        26.2180   42.3200   24.7610 C.3   150  TYR150      0.0534
    113  CG        24.8240   42.8930   24.8020 C.ar  150  TYR150     -0.0201
    114  CD1       24.2720   43.5080   23.6800 C.ar  150  TYR150     -0.0009
    115  CD2       24.0340   42.7770   25.9460 C.ar  150  TYR150     -0.0009
    116  CE1       22.9640   43.9940   23.6910 C.ar  150  TYR150      0.0417
    117  CE2       22.7250   43.2570   25.9670 C.ar  150  TYR150      0.0417
    118  CZ        22.1980   43.8620   24.8360 C.ar  150  TYR150      0.1957
    119  OH        20.9040   44.3160   24.8390 O.3   150  TYR150     -0.2866
    120  N         15.0330   41.2350   23.7350 N.3   161  LEU161     -0.1231
    121  CA        15.6620   42.4430   24.2650 C.3   161  LEU161      0.1693
    122  C         14.7780   42.8430   25.4290 C.2   161  LEU161      0.2593
    123  O         13.6110   43.1800   25.1810 O.2   161  LEU161     -0.2718
    124  CB        15.6680   43.5370   23.2250 C.3   161  LEU161      0.0284
    125  CG        16.0350   44.9400   23.6730 C.3   161  LEU161      0.0019
    126  CD1       17.4500   44.9510   24.2470 C.3   161  LEU161      0.0001
    127  CD2       15.9260   45.8990   22.4910 C.3   161  LEU161      0.0001
    128  N         15.3120   42.7970   26.6480 N.am  162  THR162     -0.1939
    129  CA        14.5390   43.1300   27.8430 C.3   162  THR162      0.2028
    130  C         13.1310   42.5430   27.7820 C.2   162  THR162      0.2643
    131  O         12.1640   43.2630   28.0730 O.2   162  THR162     -0.2714
    132  CB        14.4480   44.6710   28.0790 C.3   162  THR162      0.1808
    133  OG1       13.8200   45.3050   26.9610 O.3   162  THR162     -0.2208
    134  CG2       15.8240   45.2580   28.2670 C.3   162  THR162      0.0379
    135  N         13.0350   41.2750   27.3910 N.am  163  GLY163     -0.1939
    136  CA        11.7510   40.5960   27.3320 C.3   163  GLY163      0.2014
    137  C         10.7770   40.8460   26.1880 C.2   163  GLY163      0.2638
    138  O          9.7030   40.2370   26.1740 O.2   163  GLY163     -0.2714
    139  N         11.1150   41.7180   25.2450 N.am  164  LEU164     -0.1977
    140  CA        10.2150   41.9870   24.1180 C.3   164  LEU164      0.1596
    141  C         10.1500   40.7730   23.1990 C.2   164  LEU164      0.2287
    142  O         11.2120   40.3050   22.7800 O.2   164  LEU164     -0.2864
    143  CB        10.6860   43.1910   23.3200 C.3   164  LEU164      0.0297
    144  CG        10.4320   44.6470   23.6880 C.3   164  LEU164      0.0022
    145  CD1        9.4290   44.7550   24.8020 C.3   164  LEU164      0.0001
    146  CD2       11.7360   45.3190   24.0590 C.3   164  LEU164      0.0001
    147  N         13.9510   54.5860   10.2290 N.3   194  ARG194     -0.1245
    148  CA        14.8930   54.4290   11.3160 C.3   194  ARG194      0.1563
    149  C         14.5880   52.9880   11.6490 C.2   194  ARG194      0.2260
    150  O         13.4230   52.7030   11.9660 O.2   194  ARG194     -0.2867
    151  CB        14.5150   55.3070   12.4990 C.3   194  ARG194      0.0307
    152  CG        15.2930   54.8970   13.6880 C.3   194  ARG194      0.0489
    153  CD        14.8530   55.6210   14.8900 C.3   194  ARG194      0.2205
    154  NE        15.6620   55.3270   16.0740 N.pl3 194  ARG194     -0.0865
    155  CZ        15.3570   54.4210   17.0000 C.cat 194  ARG194      0.5346
    156  NH1       14.2490   53.7030   16.9020 N.pl3 194  ARG194      0.1354
    157  NH2       16.1660   54.2350   18.0330 N.pl3 194  ARG194      0.1354
    158  N         14.6100   50.5450   14.1750 N.3   196  ASP196     -0.1225
    159  CA        14.7430   50.3940   15.6110 C.3   196  ASP196      0.1805
    160  C         15.3830   49.0710   15.9860 C.2   196  ASP196      0.2597
    161  O         15.0610   48.0640   15.3480 O.2   196  ASP196     -0.2718
    162  CB        13.3880   50.4860   16.2490 C.3   196  ASP196      0.1424
    163  CG        13.4480   50.3080   17.7430 C.2   196  ASP196      0.3668
    164  OD1       14.0180   51.1930   18.4060 O.co2 196  ASP196     -0.2456
    165  OD2       12.9400   49.2870   18.2530 O.co2 196  ASP196     -0.2456
    166  N         16.2640   49.0920   16.9850 N.am  197  ALA197     -0.1979
    167  CA        16.9290   47.8850   17.4750 C.3   197  ALA197      0.1597
    168  C         17.5900   47.0400   16.4030 C.2   197  ALA197      0.2287
    169  O         17.4260   45.8150   16.4490 O.2   197  ALA197     -0.2864
    170  CB        15.9210   47.0290   18.2520 C.3   197  ALA197      0.0319
    171  N         20.6760   46.3070   16.0480 N.3   199  LYS199     -0.1231
    172  CA        21.7240   45.4510   16.5930 C.3   199  LYS199      0.1693
    173  C         21.1080   44.1010   16.9080 C.2   199  LYS199      0.2592
    174  O         21.8120   43.0940   16.8620 O.2   199  LYS199     -0.2718
    175  CB        22.3040   46.0440   17.8690 C.3   199  LYS199      0.0285
    176  CG        23.2670   45.0800   18.4210 C.3   199  LYS199      0.0035
    177  CD        23.7150   45.4140   19.7740 C.3   199  LYS199      0.0206
    178  CE        24.5950   46.5790   19.8010 C.3   199  LYS199      0.1093
    179  NZ        25.0570   46.8850   21.1880 N.3   199  LYS199     -0.1314
    180  N         19.8150   44.0970   17.2040 N.am  200  HIS200     -0.1976
    181  CA        19.1210   42.8710   17.5660 C.3   200  HIS200      0.1656
    182  C         18.5270   42.1000   16.3980 C.2   200  HIS200      0.2291
    183  O         17.7890   41.1180   16.6380 O.2   200  HIS200     -0.2864
    184  CB        18.0860   43.2040   18.6070 C.3   200  HIS200      0.0771
    185  CG        18.6780   43.8300   19.8300 C.ar  200  HIS200      0.0820
    186  ND1       19.4380   43.1150   20.7340 N.ar  200  HIS200     -0.2267
    187  CD2       18.7260   45.1210   20.2380 C.ar  200  HIS200      0.1154
    188  CE1       19.9330   43.9400   21.6400 C.ar  200  HIS200      0.1986
    189  NE2       19.5170   45.1620   21.3610 N.ar  200  HIS200     -0.2212
    190  N         19.5000   51.5600   13.7940 N.3   232  GLU232     -0.1245
    191  CA        19.8630   51.9100   15.1730 C.3   232  GLU232      0.1567
    192  C         20.7420   50.8050   15.7310 C.2   232  GLU232      0.2260
    193  O         20.2290   49.7320   16.0510 O.2   232  GLU232     -0.2867
    194  CB        18.6610   52.0610   16.0900 C.3   232  GLU232      0.0388
    195  CG        19.2060   52.4010   17.4180 C.3   232  GLU232      0.1160
    196  CD        18.3280   51.9790   18.5920 C.2   232  GLU232      0.3649
    197  OE1       17.4370   51.1270   18.4030 O.co2 232  GLU232     -0.2457
    198  OE2       18.5470   52.4920   19.7160 O.co2 232  GLU232     -0.2457
    199  N         23.7840   50.4220   18.6070 N.3   234  ILE234     -0.1245
    200  CA        24.6000   51.0570   19.6250 C.3   234  ILE234      0.1561
    201  C         25.9320   50.3150   19.7310 C.2   234  ILE234      0.2260
    202  O         26.0130   49.3220   20.4640 O.2   234  ILE234     -0.2867
    203  CB        23.8580   51.0630   20.9780 C.3   234  ILE234      0.0252
    204  CG1       22.5550   51.8270   20.8330 C.3   234  ILE234      0.0019
    205  CG2       24.7450   51.6850   22.0440 C.3   234  ILE234      0.0019
    206  CD1       21.6090   51.7070   21.9930 C.3   234  ILE234      0.0001
    207  N         16.1400   60.3800   21.7010 N.3   298  HIS298     -0.1226
    208  CA        15.0930   60.2320   22.7100 C.3   298  HIS298      0.1752
    209  C         15.4570   59.3420   23.8870 C.2   298  HIS298      0.2596
    210  O         14.9460   59.5980   24.9860 O.2   298  HIS298     -0.2718
    211  CB        13.8100   59.7370   22.0810 C.3   298  HIS298      0.0759
    212  CG        13.8890   58.3350   21.5560 C.ar  298  HIS298      0.0818
    213  ND1       14.5440   58.0100   20.3880 N.ar  298  HIS298     -0.2268
    214  CD2       13.3880   57.1740   22.0420 C.ar  298  HIS298      0.1154
    215  CE1       14.4420   56.7100   20.1760 C.ar  298  HIS298      0.1986
    216  NE2       13.7450   56.1790   21.1640 N.ar  298  HIS298     -0.2212
    217  N         16.2970   58.3320   23.6710 N.am  299  ASP299     -0.1974
    218  CA        16.6970   57.4350   24.7550 C.3   299  ASP299      0.1709
    219  C         17.7340   58.0000   25.6840 C.2   299  ASP299      0.2293
    220  O         17.4320   58.2000   26.8600 O.2   299  ASP299     -0.2864
    221  CB        17.2560   56.1580   24.2170 C.3   299  ASP299      0.1436
    222  CG        16.2080   55.2690   23.6360 C.2   299  ASP299      0.3671
    223  OD1       15.3480   54.7870   24.4040 O.co2 299  ASP299     -0.2456
    224  OD2       16.2510   55.0560   22.4070 O.co2 299  ASP299     -0.2456
    225  N         18.7880   56.7030   29.1600 N.3   304  HIS304     -0.1226
    226  CA        18.2360   55.4100   28.7530 C.3   304  HIS304      0.1756
    227  C         19.0720   54.8080   27.6340 C.2   304  HIS304      0.2635
    228  O         18.5990   53.8580   27.0060 O.2   304  HIS304     -0.2714
    229  CB        16.8210   55.5940   28.2300 C.3   304  HIS304      0.0759
    230  CG        15.7390   55.2670   29.2170 C.ar  304  HIS304      0.0818
    231  ND1       15.4110   53.9740   29.5660 N.ar  304  HIS304     -0.2268
    232  CD2       14.8750   56.0660   29.8900 C.ar  304  HIS304      0.1154
    233  CE1       14.3930   53.9900   30.4080 C.ar  304  HIS304      0.1986
    234  NE2       14.0480   55.2480   30.6210 N.ar  304  HIS304     -0.2212
    235  N         20.2810   55.3130   27.4080 N.am  305  GLY305     -0.1732
    236  CA        21.0750   54.7610   26.3270 C.2   305  GLY305      0.1340
    237  C         22.5730   55.0060   26.2970 C.2   305  GLY305      0.2521
    238  O         23.1820   55.3790   27.3150 O.2   305  GLY305     -0.2816
@<TRIPOS>BOND
     1   147   148    1
     2   148   149    1
     3   148   151    1
     4   149   150    2
     5   151   152    1
     6   152   153    1
     7   190   191    1
     8   158   159    1
     9   153   154    1
    10   191   192    1
    11   191   194    1
    12   161   160    2
    13   159   160    1
    14   159   162    1
    15   192   193    2
    16   160   166   am
    17   171   172    1
    18   154   155    2
    19   194   195    1
    20   162   163    1
    21   182   183    2
    22   182   181    1
    23   168   169    2
    24   168   167    1
    25   172   173    1
    26   172   175    1
    27   174   173    2
    28   156   155    1
    29   173   180   am
    30   166   167    1
    31   155   157    1
    32    66    67    1
    33   180   181    1
    34   195   196    1
    35   167   170    1
    36   181   184    1
    37    69    68    2
    38   163   165   ar
    39   163   164   ar
    40   175   176    1
    41    67    68    1
    42    67    70    1
    43   197   196   ar
    44   176   177    1
    45   196   198   ar
    46   184   185    1
    47   199   200    1
    48    56    55    1
    49    53    51   ar
    50    53    55   ar
    51    72    74   ar
    52    72    71   ar
    53    70    71    1
    54   200   201    1
    55   200   203    1
    56   201   202    2
    57    74    75   ar
    58   177   178    1
    59   178   179    1
    60    71    73   ar
    61   185   187   ar
    62   185   186   ar
    63    51    50   ar
    64    55    54   ar
    65   215   213   ar
    66   215   216   ar
    67    75    73   ar
    68   187   189   ar
    69   213   212   ar
    70   186   188   ar
    71   204   203    1
    72   204   206    1
    73   203   205    1
    74    50    49    1
    75    50    52   ar
    76   216   214   ar
    77    46    47    1
    78    46    45    1
    79    46    49    1
    80    54    52   ar
    81    59    60    2
    82    59    58    1
    83   189   188   ar
    84   212   214   ar
    85   212   211    1
    86    47    48    2
    87    47    57   am
    88   207   208    1
    89    57    58    1
    90   211   208    1
    91    58    61    1
    92   224   222   ar
    93   127   125    1
    94   208   209    1
    95   142   141    2
    96   111   110    2
    97   141   140    1
    98   124   125    1
    99   124   121    1
   100   143   144    1
   101   143   140    1
   102    61    62    1
   103   222   221    1
   104   222   223   ar
   105   217   209   am
   106   217   218    1
   107   125   126    1
   108   114   116   ar
   109   114   113   ar
   110   144   146    1
   111   144   145    1
   112   116   118   ar
   113   120   121    1
   114   209   210    2
   115   110   109    1
   116   140   139    1
   117    62    63    1
   118   221   218    1
   119   121   122    1
   120    20    19    2
   121   109   112    1
   122   109   108    1
   123   218   219    1
   124   112   113    1
   125    29    27   ar
   126    29    30   ar
   127   113   115   ar
   128   118   119    1
   129   118   117   ar
   130    34    33    2
   131    27    24   ar
   132   123   122    2
   133    76    77    1
   134   139   137   am
   135    33    32    1
   136   122   128   am
   137    63    65   am
   138    63    64    2
   139    19    18    1
   140    19    31   am
   141   219   220    2
   142    32    31    1
   143    32    35    1
   144    30    28   ar
   145    21    18    1
   146    21    22    1
   147   115   117   ar
   148    18    17    1
   149    24    22   ar
   150    24    26   ar
   151   138   137    2
   152   137   136    1
   153    77    78    1
   154   237   236    1
   155   237   238    2
   156   236   235    2
   157    79    78    2
   158    78    80   am
   159    35    36    1
   160   128   129    1
   161    22    23   ar
   162    80    81    1
   163   102   103    2
   164   102   101    1
   165    81    84    1
   166    81    82    1
   167    84    85    1
   168   133   132    1
   169   228   227    2
   170    28    26   ar
   171   101   100    1
   172   101   104    1
   173    26    25   ar
   174   136   135    1
   175   135   130   am
   176   235   227    1
   177   227   226    1
   178    98    97    1
   179   130   129    1
   180   130   131    2
   181   129   132    1
   182   106   105   ar
   183    23    25   ar
   184    97    99    1
   185    97    94    1
   186     1     2    1
   187   132   134    1
   188    36    38   ar
   189    36    37   ar
   190     8     6    1
   191    87    85   am
   192    82    83    2
   193    82    88   am
   194    85    86    2
   195   229   226    1
   196   229   230    1
   197   104   105    1
   198     6     5    1
   199    41    38   ar
   200    41    43   ar
   201    96    95    2
   202   105   107   ar
   203   226   225    1
   204    38    40   ar
   205    37    39   ar
   206    88    89    1
   207   230   231   ar
   208   230   232   ar
   209    95    94    1
   210    94    93    1
   211     5     2    1
   212     5     7    1
   213    93    90   am
   214     2     3    1
   215    43    44   ar
   216   231   233   ar
   217   232   234   ar
   218     4     3    2
   219    40    39   ar
   220    40    42   ar
   221    89    90    1
   222    89    92    1
   223    90    91    2
   224   233   234   ar
   225    44    42   ar
   226     9    10    1
   227    12    11    2
   228    11    10    1
   229    10    13    1
   230    13    14    1
   231    14    16   am
   232    14    15    2
