@<TRIPOS>MOLECULE
tmp/2qv6D01.pdb
 117 112 0 0 0
SMALL
GASTEIGER

@<TRIPOS>ATOM
      1  N        -24.6590   17.7210   29.2980 N.3   136  HIS136     -0.1241
      2  CA       -24.4400   19.0510   28.7630 C.3   136  HIS136      0.1621
      3  C        -25.8060   19.7080   28.8780 C.2   136  HIS136      0.2264
      4  O        -26.7760   19.2640   28.2190 O.2   136  HIS136     -0.2867
      5  CB       -23.9660   18.9820   27.3060 C.3   136  HIS136      0.0745
      6  CG       -23.5450   20.3070   26.7290 C.ar  136  HIS136      0.0817
      7  ND1      -22.9480   20.4190   25.4940 N.ar  136  HIS136     -0.2268
      8  CD2      -23.6040   21.5740   27.2290 C.ar  136  HIS136      0.1154
      9  CE1      -22.6860   21.6980   25.2500 C.ar  136  HIS136      0.1986
     10  NE2      -23.0580   22.4140   26.2910 N.ar  136  HIS136     -0.2212
     11  N        -28.3040   23.2850   29.3680 N.3   138  ASP138     -0.1225
     12  CA       -28.4620   24.5030   28.5950 C.3   138  ASP138      0.1805
     13  C        -29.8760   25.0950   28.8670 C.2   138  ASP138      0.2598
     14  O        -30.8500   24.3480   29.1330 O.2   138  ASP138     -0.2718
     15  CB       -28.1990   24.1310   27.1160 C.3   138  ASP138      0.1424
     16  CG       -28.6500   25.1860   26.1410 C.2   138  ASP138      0.3668
     17  OD1      -27.8970   26.1400   25.7950 O.co2 138  ASP138     -0.2456
     18  OD2      -29.7700   25.0540   25.6760 O.co2 138  ASP138     -0.2456
     19  N        -29.9800   26.4240   28.8580 N.am  139  ILE139     -0.1966
     20  CA       -31.2430   27.1230   29.0530 C.3   139  ILE139      0.1727
     21  C        -31.9690   27.3100   27.7110 C.2   139  ILE139      0.2616
     22  O        -31.3720   27.7540   26.7360 O.2   139  ILE139     -0.2715
     23  CB       -30.9990   28.5300   29.6960 C.3   139  ILE139      0.0290
     24  CG1      -30.2690   28.3740   31.0310 C.3   139  ILE139      0.0022
     25  CG2      -32.3150   29.2970   29.8380 C.3   139  ILE139      0.0023
     26  CD1      -29.9860   29.6910   31.7830 C.3   139  ILE139      0.0001
     27  N        -33.2480   26.9440   27.6600 N.am  140  ASN140     -0.1958
     28  CA       -34.0890   27.1820   26.4970 C.3   140  ASN140      0.1819
     29  C        -34.2770   28.6780   26.2630 C.2   140  ASN140      0.2621
     30  O        -34.7320   29.3860   27.1480 O.2   140  ASN140     -0.2715
     31  CB       -35.4770   26.5500   26.6820 C.3   140  ASN140      0.1195
     32  CG       -35.4580   25.0500   26.5270 C.2   140  ASN140      0.2630
     33  OD1      -34.4250   24.4540   26.2010 O.2   140  ASN140     -0.2716
     34  ND2      -36.6130   24.4270   26.7200 N.am  140  ASN140     -0.0877
     35  N        -33.9100   29.1190   25.0660 N.am  141  ASN141     -0.1958
     36  CA       -34.1520   30.4660   24.5820 C.3   141  ASN141      0.1819
     37  C        -33.5520   31.5680   25.4640 C.2   141  ASN141      0.2621
     38  O        -34.2300   32.5310   25.8370 O.2   141  ASN141     -0.2715
     39  CB       -35.6570   30.6660   24.3660 C.3   141  ASN141      0.1195
     40  CG       -35.9750   31.9200   23.6120 C.2   141  ASN141      0.2630
     41  OD1      -35.0910   32.5690   23.0550 O.2   141  ASN141     -0.2716
     42  ND2      -37.2380   32.3060   23.6380 N.am  141  ASN141     -0.0877
     43  N        -32.2590   31.4770   25.7530 N.am  142  ILE142     -0.1963
     44  CA       -31.6290   32.5470   26.5460 C.3   142  ILE142      0.1727
     45  C        -31.7230   33.8640   25.7690 C.2   142  ILE142      0.2616
     46  O        -31.8170   34.9210   26.3780 O.2   142  ILE142     -0.2715
     47  CB       -30.1480   32.2500   26.9640 C.3   142  ILE142      0.0290
     48  CG1      -29.6170   33.2980   27.9910 C.3   142  ILE142      0.0022
     49  CG2      -29.2020   32.2550   25.7470 C.3   142  ILE142      0.0023
     50  CD1      -30.1290   33.1860   29.3630 C.3   142  ILE142      0.0001
     51  N        -31.6760   33.7880   24.4410 N.am  143  THR143     -0.1951
     52  CA       -31.4730   34.9530   23.5760 C.3   143  THR143      0.1897
     53  C        -32.7090   35.8560   23.6090 C.2   143  THR143      0.2313
     54  O        -32.5890   37.0930   23.7240 O.2   143  THR143     -0.2863
     55  CB       -31.1270   34.5560   22.1000 C.3   143  THR143      0.1794
     56  OG1      -29.9510   33.7340   22.0660 O.3   143  THR143     -0.2208
     57  CG2      -30.8930   35.8080   21.2230 C.3   143  THR143      0.0378
     58  N        -19.3780   26.4030   31.3320 N.3   180  ILE180     -0.1231
     59  CA       -18.5300   26.3560   30.1280 C.3   180  ILE180      0.1692
     60  C        -18.7650   27.5310   29.1640 C.2   180  ILE180      0.2593
     61  O        -18.1640   27.6010   28.0890 O.2   180  ILE180     -0.2718
     62  CB       -18.5970   24.9620   29.3920 C.3   180  ILE180      0.0266
     63  CG1      -20.0350   24.5500   29.0990 C.3   180  ILE180      0.0019
     64  CG2      -17.8960   23.9360   30.2900 C.3   180  ILE180      0.0020
     65  CD1      -20.2250   23.4190   28.1010 C.3   180  ILE180      0.0001
     66  N        -19.5610   28.4930   29.6030 N.am  181  GLY181     -0.1942
     67  CA       -19.8610   29.6420   28.7870 C.3   181  GLY181      0.2014
     68  C        -21.3030   29.7930   28.3000 C.2   181  GLY181      0.2639
     69  O        -22.0860   28.8200   28.1550 O.2   181  GLY181     -0.2714
     70  N        -21.6480   31.0370   27.9870 N.am  182  GLY182     -0.1939
     71  CA       -22.9760   31.3670   27.5270 C.3   182  GLY182      0.2014
     72  C        -24.0470   31.1000   28.5680 C.2   182  GLY182      0.2639
     73  O        -24.1570   31.7910   29.6060 O.2   182  GLY182     -0.2714
     74  N        -24.8970   30.1340   28.2500 N.am  183  ASP183     -0.1957
     75  CA       -25.9100   29.6650   29.1650 C.3   183  ASP183      0.1840
     76  C        -25.7000   28.1790   29.3070 C.2   183  ASP183      0.2622
     77  O        -26.6570   27.4870   29.4000 O.2   183  ASP183     -0.2715
     78  CB       -27.3280   29.9400   28.6110 C.3   183  ASP183      0.1450
     79  CG       -27.6030   29.3000   27.2220 C.2   183  ASP183      0.3671
     80  OD1      -26.6800   29.1980   26.3710 O.co2 183  ASP183     -0.2456
     81  OD2      -28.7640   28.9060   26.9430 O.co2 183  ASP183     -0.2456
     82  N        -24.4550   27.7320   29.3230 N.am  184  ASN184     -0.1972
     83  CA       -24.1070   26.2920   29.2410 C.3   184  ASN184      0.1688
     84  C        -23.3530   25.7550   30.4630 C.2   184  ASN184      0.2292
     85  O        -22.5180   26.4580   31.0310 O.2   184  ASN184     -0.2864
     86  CB       -23.2440   26.0170   27.9910 C.3   184  ASN184      0.1181
     87  CG       -24.0400   25.9760   26.7250 C.2   184  ASN184      0.2629
     88  OD1      -24.5680   26.9850   26.2820 O.2   184  ASN184     -0.2716
     89  ND2      -24.0910   24.8100   26.0900 N.am  184  ASN184     -0.0877
     90  N        -32.7080   22.0920   29.5330 N.3   213  LYS213     -0.1245
     91  CA       -32.6250   20.8160   28.8080 C.3   213  LYS213      0.1561
     92  C        -31.2180   20.3050   28.9130 C.2   213  LYS213      0.2260
     93  O        -30.3070   21.0700   29.2370 O.2   213  LYS213     -0.2867
     94  CB       -32.9950   20.9750   27.3330 C.3   213  LYS213      0.0271
     95  CG       -32.0930   21.8950   26.5240 C.3   213  LYS213      0.0035
     96  CD       -32.6180   22.0880   25.0710 C.3   213  LYS213      0.0206
     97  CE       -31.8090   23.1190   24.2820 C.3   213  LYS213      0.1093
     98  NZ       -32.0500   24.5350   24.6900 N.3   213  LYS213     -0.1314
     99  N        -23.5190   16.5850   23.2240 N.3   230  ASP230     -0.1239
    100  CA       -23.7720   17.5780   22.1680 C.3   230  ASP230      0.1674
    101  C        -24.8470   17.1000   21.1820 C.2   230  ASP230      0.2266
    102  O        -25.7830   17.8250   20.8830 O.2   230  ASP230     -0.2867
    103  CB       -22.4700   17.8810   21.4080 C.3   230  ASP230      0.1410
    104  CG       -21.5060   18.8040   22.1980 C.2   230  ASP230      0.3668
    105  OD1      -21.9350   19.4320   23.1830 O.co2 230  ASP230     -0.2456
    106  OD2      -20.3030   18.9020   21.8370 O.co2 230  ASP230     -0.2456
    107  N        -33.5460   19.8410   20.2980 N.3   237  ARG237     -0.1245
    108  CA       -33.8780   21.0390   19.5100 C.3   237  ARG237      0.1563
    109  C        -34.6600   20.7130   18.2330 C.2   237  ARG237      0.2260
    110  O        -35.5530   21.4670   17.8370 O.2   237  ARG237     -0.2867
    111  CB       -32.6100   21.7910   19.1290 C.3   237  ARG237      0.0307
    112  CG       -31.9440   22.4910   20.2760 C.3   237  ARG237      0.0489
    113  CD       -30.7970   23.3360   19.7490 C.3   237  ARG237      0.2205
    114  NE       -30.2810   24.2530   20.7570 N.pl3 237  ARG237     -0.0865
    115  CZ       -29.0230   24.2910   21.2010 C.cat 237  ARG237      0.5346
    116  NH1      -28.1060   23.4530   20.7590 N.pl3 237  ARG237      0.1354
    117  NH2      -28.6870   25.1760   22.1200 N.pl3 237  ARG237      0.1354
@<TRIPOS>BOND
     1   110   109    2
     2   109   108    1
     3   111   108    1
     4   111   112    1
     5   108   107    1
     6   113   112    1
     7   113   114    1
     8   114   115    2
     9   116   115    1
    10   102   101    2
    11   101   100    1
    12   115   117    1
    13    57    55    1
    14   103   100    1
    15   103   104    1
    16   106   104   ar
    17    56    55    1
    18    55    52    1
    19   100    99    1
    20   104   105   ar
    21    41    40    2
    22    52    53    1
    23    52    51    1
    24    53    54    2
    25    40    42   am
    26    40    39    1
    27    97    98    1
    28    97    96    1
    29    39    36    1
    30    51    45   am
    31    36    35    1
    32    36    37    1
    33    35    29   am
    34    96    95    1
    35     9     7   ar
    36     9    10   ar
    37    37    43   am
    38    37    38    2
    39     7     6   ar
    40    18    16   ar
    41    49    47    1
    42    43    44    1
    43    45    46    2
    44    45    44    1
    45    17    16   ar
    46    89    87   am
    47    16    15    1
    48    33    32    2
    49    29    28    1
    50    29    30    2
    51    88    87    2
    52    10     8   ar
    53    80    79   ar
    54    28    31    1
    55    28    27    1
    56    95    94    1
    57    32    31    1
    58    32    34   am
    59    44    47    1
    60    87    86    1
    61     6     8   ar
    62     6     5    1
    63    22    21    2
    64    81    79   ar
    65    47    48    1
    66    15    12    1
    67    79    78    1
    68     5     2    1
    69    94    91    1
    70    71    70    1
    71    71    72    1
    72    27    21   am
    73    21    20    1
    74    70    68   am
    75    48    50    1
    76    86    83    1
    77    61    60    2
    78    65    63    1
    79    69    68    2
    80     4     3    2
    81    74    72   am
    82    74    75    1
    83    68    67    1
    84    72    73    2
    85    12    13    1
    86    12    11    1
    87    78    75    1
    88     2     3    1
    89     2     1    1
    90    67    66    1
    91    91    92    1
    92    91    90    1
    93    19    13   am
    94    19    20    1
    95    13    14    2
    96    92    93    2
    97    20    23    1
    98    63    62    1
    99    60    66   am
   100    60    59    1
   101    75    76    1
   102    83    82    1
   103    83    84    1
   104    76    82   am
   105    76    77    2
   106    62    59    1
   107    62    64    1
   108    23    25    1
   109    23    24    1
   110    59    58    1
   111    84    85    2
   112    24    26    1
