@<TRIPOS>MOLECULE
tmp/2qv6D00.pdb
 111 104 0 0 0
SMALL
GASTEIGER

@<TRIPOS>ATOM
      1  N          1.6550   29.5130   44.3430 N.3    12  TYR12      -0.1227
      2  CA         1.2250   30.6030   43.4360 C.3    12  TYR12       0.1736
      3  C          1.0390   31.9670   44.1030 C.2    12  TYR12       0.2596
      4  O          1.4790   32.9860   43.5660 O.2    12  TYR12      -0.2718
      5  CB        -0.0450   30.1700   42.6910 C.3    12  TYR12       0.0548
      6  CG        -0.4740   31.0640   41.5410 C.ar   12  TYR12      -0.0200
      7  CD1        0.4190   31.4160   40.5130 C.ar   12  TYR12      -0.0009
      8  CD2       -1.7780   31.5370   41.4600 C.ar   12  TYR12      -0.0009
      9  CE1        0.0220   32.2350   39.4690 C.ar   12  TYR12       0.0417
     10  CE2       -2.1810   32.3460   40.4150 C.ar   12  TYR12       0.0417
     11  CZ        -1.2830   32.6850   39.4140 C.ar   12  TYR12       0.1957
     12  OH        -1.6950   33.5130   38.3930 O.3    12  TYR12      -0.2866
     13  N          0.3800   31.9920   45.2570 N.am   13  GLY13      -0.1957
     14  CA         0.1030   33.2520   45.9770 C.3    13  GLY13       0.1869
     15  C          1.3170   34.1430   46.2390 C.2    13  GLY13       0.2309
     16  O          1.2820   35.3490   45.9660 O.2    13  GLY13      -0.2863
     17  N          2.7690   36.0000   42.9460 N.3    16  THR16      -0.1203
     18  CA         1.9630   37.0740   42.3320 C.3    16  THR16       0.1994
     19  C          2.2380   38.4240   42.9670 C.2    16  THR16       0.2617
     20  O          1.7900   39.4590   42.4880 O.2    16  THR16      -0.2717
     21  CB         0.4420   36.8070   42.4790 C.3    16  THR16       0.1784
     22  OG1        0.0350   37.0230   43.8450 O.3    16  THR16      -0.2211
     23  CG2        0.0910   35.3770   42.0510 C.3    16  THR16       0.0376
     24  N          2.9730   38.3780   44.0660 N.am   17  VAL17      -0.1979
     25  CA         3.1970   39.5050   44.9450 C.3    17  VAL17       0.1595
     26  C          4.7050   39.7230   45.2300 C.2    17  VAL17       0.2287
     27  O          5.0890   40.7580   45.7720 O.2    17  VAL17      -0.2864
     28  CB         2.3560   39.2410   46.2320 C.3    17  VAL17       0.0276
     29  CG1        2.9410   39.8740   47.4200 C.3    17  VAL17       0.0022
     30  CG2        0.8880   39.6850   46.0050 C.3    17  VAL17       0.0022
     31  N          3.3990   43.2630   43.5870 N.3    21  PRO21      -0.2102
     32  CA         2.1680   42.8870   42.8970 C.3    21  PRO21       0.1504
     33  C          2.2630   43.1020   41.4030 C.2    21  PRO21       0.2575
     34  O          2.8800   44.0760   40.9460 O.2    21  PRO21      -0.2718
     35  CB         1.1230   43.8600   43.4740 C.3    21  PRO21       0.0282
     36  CG         1.6240   44.1870   44.7900 C.3    21  PRO21       0.0208
     37  CD         3.1270   44.2820   44.6130 C.3    21  PRO21       0.0893
     38  N          1.6150   42.2160   40.6550 N.am   22  ARG22      -0.1980
     39  CA         1.6900   42.2410   39.2040 C.3    22  ARG22       0.1597
     40  C          0.4080   42.8080   38.6280 C.2    22  ARG22       0.2287
     41  O         -0.6580   42.6550   39.1900 O.2    22  ARG22      -0.2864
     42  CB         1.9350   40.8380   38.6880 C.3    22  ARG22       0.0334
     43  CG         3.1930   40.2080   39.2620 C.3    22  ARG22       0.0492
     44  CD         3.2250   38.7400   38.9780 C.3    22  ARG22       0.2205
     45  NE         4.3320   38.0870   39.6580 N.pl3  22  ARG22      -0.0865
     46  CZ         5.6070   38.2070   39.3000 C.cat  22  ARG22       0.5346
     47  NH1        5.9600   38.9370   38.2570 N.pl3  22  ARG22       0.1354
     48  NH2        6.5420   37.5680   39.9740 N.pl3  22  ARG22       0.1354
     49  N         -2.9260   43.2250   36.8080 N.3    24  GLU24      -0.1245
     50  CA        -4.0140   42.2380   36.6620 C.3    24  GLU24       0.1567
     51  C         -4.3660   41.7910   35.2270 C.2    24  GLU24       0.2260
     52  O         -4.7230   40.6320   35.0450 O.2    24  GLU24      -0.2867
     53  CB        -5.3040   42.7080   37.3700 C.3    24  GLU24       0.0388
     54  CG        -6.3570   41.5860   37.6370 C.3    24  GLU24       0.1160
     55  CD        -5.8100   40.4240   38.4410 C.2    24  GLU24       0.3649
     56  OE1       -5.0180   40.6840   39.3790 O.co2  24  GLU24      -0.2457
     57  OE2       -6.1520   39.2410   38.1380 O.co2  24  GLU24      -0.2457
     58  N         -2.0950   38.9090   34.5810 N.3    27  LEU27      -0.1231
     59  CA        -2.4670   37.6580   35.2830 C.3    27  LEU27       0.1693
     60  C         -3.6910   36.9900   34.6900 C.2    27  LEU27       0.2591
     61  O         -3.8170   35.7470   34.7040 O.2    27  LEU27      -0.2718
     62  CB        -2.7050   37.9270   36.7760 C.3    27  LEU27       0.0284
     63  CG        -1.5090   38.3450   37.6510 C.3    27  LEU27       0.0019
     64  CD1       -1.9190   38.2890   39.1170 C.3    27  LEU27       0.0001
     65  CD2       -0.2860   37.4970   37.4330 C.3    27  LEU27       0.0001
     66  N         -4.6080   37.7900   34.1800 N.am   28  GLN28      -0.1979
     67  CA        -5.7880   37.2750   33.4760 C.3    28  GLN28       0.1601
     68  C         -5.3960   36.5530   32.1770 C.2    28  GLN28       0.2287
     69  O         -5.8970   35.4440   31.8800 O.2    28  GLN28      -0.2864
     70  CB        -6.7990   38.4120   33.1950 C.3    28  GLN28       0.0394
     71  CG        -7.5300   38.9200   34.4270 C.3    28  GLN28       0.0908
     72  CD        -8.0620   37.7860   35.3170 C.2    28  GLN28       0.2608
     73  OE1       -8.8900   36.9750   34.9040 O.2    28  GLN28      -0.2717
     74  NE2       -7.5470   37.7130   36.5220 N.am   28  GLN28      -0.0878
     75  N         -3.2880   33.2860   33.1700 N.3    31  GLN31      -0.1245
     76  CA        -4.1950   32.2800   33.7350 C.3    31  GLN31       0.1566
     77  C         -5.0760   31.6550   32.6610 C.2    31  GLN31       0.2260
     78  O         -5.2370   30.4350   32.6330 O.2    31  GLN31      -0.2867
     79  CB        -5.0340   32.8620   34.8780 C.3    31  GLN31       0.0367
     80  CG        -4.2790   33.0020   36.2120 C.3    31  GLN31       0.0905
     81  CD        -5.0360   33.7640   37.3140 C.2    31  GLN31       0.2608
     82  OE1       -6.2030   34.1130   37.1840 O.2    31  GLN31      -0.2717
     83  NE2       -4.3670   33.9840   38.4120 N.am   31  GLN31      -0.0878
     84  N        -11.0800   27.0630   39.7480 N.3    53  ARG53      -0.1245
     85  CA       -10.6310   28.3600   40.3300 C.3    53  ARG53       0.1563
     86  C         -9.4090   29.0100   39.6450 C.2    53  ARG53       0.2260
     87  O         -8.8800   29.9990   40.1400 O.2    53  ARG53      -0.2867
     88  CB       -10.3420   28.2010   41.8190 C.3    53  ARG53       0.0307
     89  CG       -11.5500   27.8530   42.6360 C.3    53  ARG53       0.0489
     90  CD       -11.3050   28.1300   44.1060 C.3    53  ARG53       0.2205
     91  NE       -10.3880   27.1510   44.6880 N.pl3  53  ARG53      -0.0865
     92  CZ        -9.3030   27.4610   45.4130 C.cat  53  ARG53       0.5346
     93  NH1       -9.0150   28.7230   45.6750 N.pl3  53  ARG53       0.1354
     94  NH2       -8.5170   26.4860   45.9240 N.pl3  53  ARG53       0.1354
     95  N         -6.1570   28.6600   39.7450 N.3    55  ASP55      -0.1239
     96  CA        -4.9690   28.1240   40.4460 C.3    55  ASP55       0.1674
     97  C         -5.1670   26.6760   40.8520 C.2    55  ASP55       0.2266
     98  O         -4.2050   26.0010   41.1550 O.2    55  ASP55      -0.2867
     99  CB        -4.5780   28.9710   41.6640 C.3    55  ASP55       0.1410
    100  CG        -5.5360   28.8280   42.8620 C.2    55  ASP55       0.3668
    101  OD1       -5.1070   29.0940   44.0200 O.co2  55  ASP55      -0.2456
    102  OD2       -6.7110   28.4730   42.6690 O.co2  55  ASP55      -0.2456
    103  N          1.0870   26.4780   49.4930 N.3   112  GLN112     -0.1245
    104  CA         2.0930   27.5380   49.5370 C.3   112  GLN112      0.1566
    105  C          3.3520   27.0800   50.2790 C.2   112  GLN112      0.2260
    106  O          3.8290   27.7470   51.1810 O.2   112  GLN112     -0.2867
    107  CB         1.4960   28.8000   50.1480 C.3   112  GLN112      0.0367
    108  CG         0.2580   29.2680   49.4110 C.3   112  GLN112      0.0905
    109  CD        -0.2040   30.6800   49.7960 C.2   112  GLN112      0.2608
    110  OE1       -0.0130   31.1250   50.9220 O.2   112  GLN112     -0.2717
    111  NE2       -0.8330   31.3670   48.8620 N.am  112  GLN112     -0.0878
@<TRIPOS>BOND
     1    69    68    2
     2    68    67    1
     3    78    77    2
     4    77    76    1
     5    75    76    1
     6    70    67    1
     7    70    71    1
     8    67    66    1
     9    76    79    1
    10    66    60   am
    11    71    72    1
    12    58    59    1
    13    60    61    2
    14    60    59    1
    15    79    80    1
    16    73    72    2
    17    52    51    2
    18    51    50    1
    19    59    62    1
    20    72    74   am
    21    80    81    1
    22    50    49    1
    23    50    53    1
    24    62    63    1
    25    82    81    2
    26    81    83   am
    27    53    54    1
    28    65    63    1
    29    54    55    1
    30    63    64    1
    31    57    55   ar
    32    47    46    1
    33    12    11    1
    34    55    56   ar
    35    40    41    2
    36    40    39    1
    37    42    39    1
    38    42    43    1
    39    44    43    1
    40    44    45    1
    41    39    38    1
    42    46    45    2
    43    46    48    1
    44    11     9   ar
    45    11    10   ar
    46     9     7   ar
    47    86    87    2
    48    86    85    1
    49    95    96    1
    50    84    85    1
    51    85    88    1
    52    10     8   ar
    53    96    97    1
    54    96    99    1
    55     7     6   ar
    56    38    33   am
    57    97    98    2
    58    34    33    2
    59    33    32    1
    60     8     6   ar
    61     6     5    1
    62    99   100    1
    63    88    89    1
    64    23    21    1
    65    18    21    1
    66    18    17    1
    67    18    19    1
    68    21    22    1
    69    20    19    2
    70    89    90    1
    71   102   100   ar
    72     5     2    1
    73   100   101   ar
    74    32    35    1
    75    32    31    1
    76    19    24   am
    77     2     3    1
    78     2     1    1
    79    35    36    1
    80     4     3    2
    81    31    37    1
    82    24    25    1
    83     3    13   am
    84    90    91    1
    85    37    36    1
    86    91    92    2
    87    25    26    1
    88    25    28    1
    89    26    27    2
    90    13    14    1
    91    92    93    1
    92    92    94    1
    93    16    15    2
    94    14    15    1
    95    30    28    1
    96    28    29    1
    97   111   109   am
    98   108   109    1
    99   108   107    1
   100   103   104    1
   101   104   107    1
   102   104   105    1
   103   109   110    2
   104   105   106    2
