@<TRIPOS>MOLECULE
tmp/2qv7A00.pdb
 133 127 0 0 0
SMALL
GASTEIGER

@<TRIPOS>ATOM
      1  N         61.3880   44.1970   27.5690 N.3    12  ASN12      -0.1226
      2  CA        62.3310   44.6000   28.5940 C.3    12  ASN12       0.1770
      3  C         62.8150   46.0140   28.2580 C.2    12  ASN12       0.2439
      4  O         63.5270   46.2000   27.2800 O.2    12  ASN12      -0.2733
      5  CB        63.4980   43.5990   28.6490 C.3    12  ASN12       0.1168
      6  CG        64.5320   43.9430   29.7110 C.2    12  ASN12       0.2627
      7  OD1       64.4180   44.9480   30.4120 O.2    12  ASN12      -0.2716
      8  ND2       65.5490   43.0990   29.8370 N.am   12  ASN12      -0.0877
      9  N         62.4000   47.0180   29.0560 N.am   13  PRO13      -0.2718
     10  CA        62.7780   48.4140   28.8060 C.3    13  PRO13       0.1535
     11  C         64.2770   48.7130   29.0090 C.2    13  PRO13       0.2599
     12  O         64.7480   49.7680   28.5770 O.2    13  PRO13      -0.2715
     13  CB        61.9370   49.1850   29.8280 C.3    13  PRO13       0.0310
     14  CG        61.7260   48.2100   30.9410 C.3    13  PRO13       0.0237
     15  CD        61.5300   46.8970   30.2430 C.3    13  PRO13       0.0939
     16  N         65.0050   47.7990   29.6550 N.am   14  THR14      -0.1937
     17  CA        66.4420   47.9680   29.9040 C.3    14  THR14       0.2028
     18  C         67.3030   47.1940   28.8990 C.2    14  THR14       0.2643
     19  O         68.5360   47.1880   28.9860 O.2    14  THR14      -0.2714
     20  CB        66.8430   47.5410   31.3500 C.3    14  THR14       0.1808
     21  OG1       66.5910   46.1400   31.5370 O.3    14  THR14      -0.2208
     22  CG2       66.0820   48.3500   32.3990 C.3    14  THR14       0.0379
     23  N         66.6480   46.5400   27.9480 N.am   15  SER15      -0.1935
     24  CA        67.3310   45.7050   26.9690 C.3    15  SER15       0.2055
     25  C         68.1660   46.5250   25.9770 C.2    15  SER15       0.2643
     26  O         67.7110   47.5530   25.4710 O.2    15  SER15      -0.2714
     27  CB        66.3080   44.8510   26.2260 C.3    15  SER15       0.2130
     28  OG        66.9280   44.1230   25.1910 O.3    15  SER15      -0.2179
     29  N         69.3910   46.0610   25.7230 N.am   16  GLY16      -0.1954
     30  CA        70.2830   46.6490   24.7210 C.3    16  GLY16       0.1869
     31  C         70.5480   48.1310   24.8980 C.2    16  GLY16       0.2309
     32  O         71.0710   48.5580   25.9300 O.2    16  GLY16      -0.2863
     33  N         58.5550   44.4410   31.5730 N.3    43  THR43      -0.1203
     34  CA        59.2100   43.7080   32.6550 C.3    43  THR43       0.1994
     35  C         59.8830   44.6880   33.6170 C.2    43  THR43       0.2618
     36  O         60.2570   45.8030   33.2260 O.2    43  THR43      -0.2717
     37  CB        60.2590   42.7000   32.1250 C.3    43  THR43       0.1784
     38  OG1       61.3070   43.4050   31.4500 O.3    43  THR43      -0.2211
     39  CG2       59.6250   41.7000   31.1590 C.3    43  THR43       0.0376
     40  N         60.0160   44.2700   34.8730 N.am   44  GLU44      -0.1965
     41  CA        60.6790   45.0710   35.9020 C.3    44  GLU44       0.1733
     42  C         61.9070   44.3680   36.4730 C.2    44  GLU44       0.2616
     43  O         62.8080   45.0200   37.0030 O.2    44  GLU44      -0.2715
     44  CB        59.7030   45.4150   37.0260 C.3    44  GLU44       0.0429
     45  CG        58.5750   46.3390   36.5840 C.3    44  GLU44       0.1163
     46  CD        57.5130   46.5390   37.6430 C.2    44  GLU44       0.3649
     47  OE1       57.3360   45.6440   38.5000 O.co2  44  GLU44      -0.2457
     48  OE2       56.8460   47.5940   37.6150 O.co2  44  GLU44      -0.2457
     49  N         61.9400   43.0410   36.3550 N.am   45  LYS45      -0.1963
     50  CA        63.0160   42.2310   36.9350 C.3    45  LYS45       0.1728
     51  C         63.1480   40.8700   36.2600 C.2    45  LYS45       0.2616
     52  O         62.3090   40.4910   35.4400 O.2    45  LYS45      -0.2715
     53  CB        62.8010   42.0390   38.4420 C.3    45  LYS45       0.0311
     54  CG        61.4180   41.5370   38.8340 C.3    45  LYS45       0.0038
     55  CD        61.3920   41.0880   40.2900 C.3    45  LYS45       0.0206
     56  CE        60.0680   41.4240   40.9620 C.3    45  LYS45       0.1093
     57  NZ        58.8720   40.9800   40.1910 N.3    45  LYS45      -0.1314
     58  N         64.2110   40.1490   36.6150 N.am   46  ILE46      -0.1977
     59  CA        64.4070   38.7570   36.2080 C.3    46  ILE46       0.1596
     60  C         63.1280   37.9600   36.4530 C.2    46  ILE46       0.2287
     61  O         62.5280   38.0500   37.5280 O.2    46  ILE46      -0.2864
     62  CB        65.5630   38.0690   37.0160 C.3    46  ILE46       0.0276
     63  CG1       66.7170   39.0390   37.3230 C.3    46  ILE46       0.0022
     64  CG2       66.0420   36.7770   36.3230 C.3    46  ILE46       0.0022
     65  CD1       67.6040   39.4130   36.1400 C.3    46  ILE46       0.0001
     66  N         59.1730   38.3610   32.4870 N.3    49  ALA49      -0.1245
     67  CA        58.7690   37.9340   31.1480 C.3    49  ALA49       0.1562
     68  C         58.1920   36.5160   31.1420 C.2    49  ALA49       0.2260
     69  O         57.2650   36.2370   30.3890 O.2    49  ALA49      -0.2867
     70  CB        59.9310   38.0600   30.1620 C.3    49  ALA49       0.0290
     71  N         63.4210   42.2660   23.1800 N.3    67  GLY67      -0.1210
     72  CA        64.5380   42.2310   24.1080 C.3    67  GLY67       0.1956
     73  C         65.6170   41.2870   23.6160 C.2    67  GLY67       0.2612
     74  O         65.5760   40.8230   22.4750 O.2    67  GLY67      -0.2717
     75  N         66.5770   40.9910   24.4810 N.am   68  GLY68      -0.1942
     76  CA        67.6890   40.1200   24.1250 C.3    68  GLY68       0.2014
     77  C         67.3400   38.6550   24.2320 C.2    68  GLY68       0.2639
     78  O         66.1730   38.2910   24.3390 O.2    68  GLY68      -0.2714
     79  N         68.3680   37.8160   24.2120 N.am   69  ASP69      -0.1957
     80  CA        68.2150   36.3750   24.3450 C.3    69  ASP69       0.1840
     81  C         67.5950   35.9650   25.6890 C.2    69  ASP69       0.2623
     82  O         66.8510   34.9850   25.7560 O.2    69  ASP69      -0.2715
     83  CB        69.5670   35.6920   24.1200 C.3    69  ASP69       0.1450
     84  CG        70.0190   35.7650   22.6630 C.2    69  ASP69       0.3671
     85  OD1       69.2620   35.3150   21.7720 O.co2  69  ASP69      -0.2456
     86  OD2       71.1330   36.2700   22.4050 O.co2  69  ASP69      -0.2456
     87  N         67.9000   36.7250   26.7410 N.am   70  GLY70      -0.1940
     88  CA        67.3340   36.5000   28.0740 C.3    70  GLY70       0.2014
     89  C         65.8260   36.6830   28.1160 C.2    70  GLY70       0.2639
     90  O         65.1180   35.8940   28.7370 O.2    70  GLY70      -0.2714
     91  N         65.3400   37.7210   27.4400 N.am   71  THR71      -0.1950
     92  CA        63.9030   37.9800   27.3150 C.3    71  THR71       0.1897
     93  C         63.2220   36.8850   26.4990 C.2    71  THR71       0.2313
     94  O         62.1630   36.3890   26.8850 O.2    71  THR71      -0.2863
     95  CB        63.6380   39.3700   26.6900 C.3    71  THR71       0.1794
     96  OG1       64.1970   40.3760   27.5400 O.3    71  THR71      -0.2208
     97  CG2       62.1470   39.6370   26.5230 C.3    71  THR71       0.0378
     98  N         63.0960   33.7000   28.5830 N.3    74  GLU74      -0.1245
     99  CA        62.0650   33.7930   29.6030 C.3    74  GLU74       0.1567
    100  C         60.6550   33.6020   29.0310 C.2    74  GLU74       0.2260
    101  O         59.8350   32.9010   29.6280 O.2    74  GLU74      -0.2867
    102  CB        62.1840   35.1100   30.3690 C.3    74  GLU74       0.0388
    103  CG        63.3270   35.1330   31.3810 C.3    74  GLU74       0.1160
    104  CD        63.2320   36.2970   32.3560 C.2    74  GLU74       0.3649
    105  OE1       62.1420   36.8980   32.4720 O.co2  74  GLU74      -0.2457
    106  OE2       64.2410   36.6070   33.0240 O.co2  74  GLU74      -0.2457
    107  N         68.2670   43.3070   22.1940 N.3    93  GLY93      -0.1210
    108  CA        69.3370   42.9990   23.1360 C.3    93  GLY93       0.1956
    109  C         70.7030   43.5250   22.7500 C.2    93  GLY93       0.2613
    110  O         70.8880   44.0910   21.6700 O.2    93  GLY93      -0.2717
    111  N         71.6600   43.3380   23.6550 N.am   94  THR94      -0.1938
    112  CA        73.0580   43.6530   23.3920 C.3    94  THR94       0.2028
    113  C         73.5990   42.5750   22.4600 C.2    94  THR94       0.2642
    114  O         74.3020   42.8660   21.4930 O.2    94  THR94      -0.2714
    115  CB        73.8780   43.7040   24.7050 C.3    94  THR94       0.1808
    116  OG1       73.2470   44.6010   25.6280 O.3    94  THR94      -0.2208
    117  CG2       75.3060   44.1740   24.4470 C.3    94  THR94       0.0379
    118  N         73.2520   41.3270   22.7660 N.am   95  VAL95      -0.1977
    119  CA        73.5230   40.1970   21.8900 C.3    95  VAL95       0.1596
    120  C         72.1850   39.5790   21.5150 C.2    95  VAL95       0.2287
    121  O         71.2730   39.5010   22.3420 O.2    95  VAL95      -0.2864
    122  CB        74.4690   39.1340   22.5410 C.3    95  VAL95       0.0276
    123  CG1       75.7610   39.7850   23.0340 C.3    95  VAL95       0.0022
    124  CG2       73.7820   38.3920   23.6880 C.3    95  VAL95       0.0022
    125  N         73.2910   32.6020   31.1160 N.3   254  GLU254     -0.1245
    126  CA        73.0810   32.8140   32.5510 C.3   254  GLU254      0.1567
    127  C         73.3140   31.5360   33.3490 C.2   254  GLU254      0.2260
    128  O         73.1680   30.4300   32.8210 O.2   254  GLU254     -0.2867
    129  CB        71.6760   33.3630   32.8370 C.3   254  GLU254      0.0388
    130  CG        71.3480   34.7040   32.1700 C.3   254  GLU254      0.1160
    131  CD        72.0540   35.9040   32.7970 C.2   254  GLU254      0.3649
    132  OE1       73.1630   35.7500   33.3540 O.co2 254  GLU254     -0.2457
    133  OE2       71.4920   37.0190   32.7210 O.co2 254  GLU254     -0.2457
@<TRIPOS>BOND
     1   114   113    2
     2   120   119    1
     3   120   121    2
     4   110   109    2
     5    85    84   ar
     6   119   122    1
     7   119   118    1
     8   107   108    1
     9    86    84   ar
    10   113   118   am
    11   113   112    1
    12    74    73    2
    13   122   123    1
    14   122   124    1
    15    84    83    1
    16   109   108    1
    17   109   111   am
    18    71    72    1
    19   112   111    1
    20   112   115    1
    21    73    72    1
    22    73    75   am
    23    83    80    1
    24    76    77    1
    25    76    75    1
    26    79    77   am
    27    79    80    1
    28    77    78    2
    29    80    81    1
    30   117   115    1
    31   115   116    1
    32    30    31    1
    33    30    29    1
    34    31    32    2
    35    28    27    1
    36    26    25    2
    37    81    82    2
    38    81    87   am
    39    29    25   am
    40    25    24    1
    41    27    24    1
    42    93    94    2
    43    93    92    1
    44    97    95    1
    45    95    92    1
    46    95    96    1
    47    87    88    1
    48    24    23    1
    49     4     3    2
    50    92    91    1
    51    91    89   am
    52     1     2    1
    53    23    18   am
    54    88    89    1
    55    89    90    2
    56     3     2    1
    57     3     9   am
    58    12    11    2
    59    98    99    1
    60     2     5    1
    61     5     6    1
    62    10    11    1
    63    10     9    1
    64    10    13    1
    65    18    19    2
    66    18    17    1
    67    11    16   am
    68   100    99    1
    69   100   101    2
    70     9    15    1
    71    99   102    1
    72    16    17    1
    73     6     8   am
    74     6     7    2
    75    13    14    1
    76    17    20    1
    77    70    67    1
    78    15    14    1
    79   102   103    1
    80    69    68    2
    81   125   126    1
    82    68    67    1
    83    67    66    1
    84    39    37    1
    85    20    21    1
    86    20    22    1
    87   103   104    1
    88    38    37    1
    89    33    34    1
    90    37    34    1
    91   130   131    1
    92   130   129    1
    93   104   105   ar
    94   104   106   ar
    95   126   129    1
    96   126   127    1
    97    34    35    1
    98   133   131   ar
    99   131   132   ar
   100   128   127    2
   101    36    35    2
   102    35    40   am
   103    40    41    1
   104    52    51    2
   105    41    42    1
   106    41    44    1
   107    65    63    1
   108    59    60    1
   109    59    58    1
   110    59    62    1
   111    51    58   am
   112    51    50    1
   113    64    62    1
   114    49    42   am
   115    49    50    1
   116    60    61    2
   117    42    43    2
   118    45    44    1
   119    45    46    1
   120    50    53    1
   121    62    63    1
   122    48    46   ar
   123    46    47   ar
   124    53    54    1
   125    54    55    1
   126    57    56    1
   127    55    56    1
