@<TRIPOS>MOLECULE
tmp/2qvdA00.pdb
 142 140 0 0 0
SMALL
GASTEIGER

@<TRIPOS>ATOM
      1  N         16.3920   42.4010   -5.7870 N.3     2  LEU2       -0.1245
      2  CA        16.7780   43.7860   -5.5050 C.3     2  LEU2        0.1561
      3  C         15.6890   44.5740   -4.7720 C.2     2  LEU2        0.2260
      4  O         15.9810   45.5290   -4.0450 O.2     2  LEU2       -0.2867
      5  CB        17.1580   44.4990   -6.8110 C.3     2  LEU2        0.0270
      6  CG        18.3090   43.8670   -7.5860 C.3     2  LEU2        0.0019
      7  CD1       18.3320   44.4180   -9.0050 C.3     2  LEU2        0.0001
      8  CD2       19.6370   44.1060   -6.8850 C.3     2  LEU2        0.0001
      9  N         16.2470   43.6300   -1.1580 N.3     5  PHE5       -0.1227
     10  CA        17.5400   44.1390   -0.7340 C.3     5  PHE5        0.1736
     11  C         17.4410   45.6490   -0.5090 C.2     5  PHE5        0.2596
     12  O         17.9180   46.1840    0.4860 O.2     5  PHE5       -0.2718
     13  CB        18.6150   43.8400   -1.7770 C.3     5  PHE5        0.0547
     14  CG        20.0120   44.0930   -1.2880 C.ar    5  PHE5       -0.0202
     15  CD1       20.3290   43.9210    0.0570 C.ar    5  PHE5       -0.0042
     16  CD2       20.9920   44.5080   -2.1620 C.ar    5  PHE5       -0.0042
     17  CE1       21.6050   44.1620    0.4920 C.ar    5  PHE5       -0.0003
     18  CE2       22.2540   44.7340   -1.7440 C.ar    5  PHE5       -0.0003
     19  CZ        22.5720   44.5740   -0.3910 C.ar    5  PHE5       -0.0000
     20  N         16.7950   46.3230   -1.4500 N.am    6  GLY6       -0.1957
     21  CA        16.5760   47.7560   -1.3780 C.3     6  GLY6        0.1869
     22  C         15.8250   48.1530   -0.1260 C.2     6  GLY6        0.2309
     23  O         16.1860   49.1140    0.5510 O.2     6  GLY6       -0.2863
     24  N         18.0390   47.7700    3.0670 N.3     9  ILE9       -0.1245
     25  CA        19.0340   48.8260    3.1230 C.3     9  ILE9        0.1561
     26  C         18.4170   50.1380    3.6710 C.2     9  ILE9        0.2260
     27  O         18.9460   50.7440    4.6170 O.2     9  ILE9       -0.2867
     28  CB        19.6490   49.0190    1.7650 C.3     9  ILE9        0.0252
     29  CG1       20.6270   47.8780    1.3670 C.3     9  ILE9        0.0019
     30  CG2       20.5170   50.3070    1.7200 C.3     9  ILE9        0.0019
     31  CD1       21.0210   48.0320   -0.1050 C.3     9  ILE9        0.0001
     32  N         18.8660   52.7910   -1.6130 N.3    17  ALA17      -0.1231
     33  CA        19.9310   52.0350   -2.2700 C.3    17  ALA17       0.1694
     34  C         20.3970   52.6980   -3.5360 C.2    17  ALA17       0.2591
     35  O         21.6050   52.7450   -3.8030 O.2    17  ALA17      -0.2718
     36  CB        19.4910   50.6180   -2.5510 C.3    17  ALA17       0.0304
     37  N         19.4480   53.1880   -4.3370 N.am   18  ILE18      -0.1980
     38  CA        19.7830   54.0030   -5.5010 C.3    18  ILE18       0.1595
     39  C         19.4510   55.4390   -5.0640 C.2    18  ILE18       0.2287
     40  O         18.3120   55.7150   -4.7420 O.2    18  ILE18      -0.2864
     41  CB        18.8690   53.6030   -6.6850 C.3    18  ILE18       0.0276
     42  CG1       19.0140   52.1260   -7.0060 C.3    18  ILE18       0.0022
     43  CG2       19.1450   54.4760   -7.9180 C.3    18  ILE18       0.0022
     44  CD1       18.3430   51.7460   -8.3110 C.3    18  ILE18       0.0001
     45  N         24.0550   53.6210   -2.6560 N.3    21  TYR21      -0.1227
     46  CA        24.8700   52.4090   -2.6770 C.3    21  TYR21       0.1736
     47  C         24.9440   51.7280   -4.0340 C.2    21  TYR21       0.2596
     48  O         25.3790   50.5840   -4.0980 O.2    21  TYR21      -0.2718
     49  CB        24.3500   51.3650   -1.6900 C.3    21  TYR21       0.0548
     50  CG        24.4780   51.7600   -0.2530 C.ar   21  TYR21      -0.0200
     51  CD1       23.4050   52.3140    0.4090 C.ar   21  TYR21      -0.0009
     52  CD2       25.6910   51.6270    0.4440 C.ar   21  TYR21      -0.0009
     53  CE1       23.5320   52.7230    1.7580 C.ar   21  TYR21       0.0417
     54  CE2       25.8030   52.0040    1.7800 C.ar   21  TYR21       0.0417
     55  CZ        24.7380   52.5410    2.4120 C.ar   21  TYR21       0.1957
     56  OH        24.8810   52.9350    3.7150 O.3    21  TYR21      -0.2866
     57  N         24.4820   52.3570   -5.1080 N.am   22  SER22      -0.1952
     58  CA        24.5540   51.6520   -6.3900 C.3    22  SER22       0.1924
     59  C         25.7300   52.0930   -7.2600 C.2    22  SER22       0.2314
     60  O         26.0020   51.4530   -8.2670 O.2    22  SER22      -0.2863
     61  CB        23.2280   51.7350   -7.1630 C.3    22  SER22       0.2116
     62  OG        22.9120   53.0800   -7.4710 O.3    22  SER22      -0.2180
     63  N         33.0670   48.3790   -5.6670 N.3    27  TYR27      -0.1227
     64  CA        32.1980   47.1860   -5.5620 C.3    27  TYR27       0.1736
     65  C         30.7140   47.3720   -5.4100 C.2    27  TYR27       0.2596
     66  O         29.9600   46.4230   -5.7170 O.2    27  TYR27      -0.2718
     67  CB        32.7030   46.2450   -4.4470 C.3    27  TYR27       0.0548
     68  CG        33.9530   45.6150   -4.9130 C.ar   27  TYR27      -0.0200
     69  CD1       35.1850   46.1620   -4.6070 C.ar   27  TYR27      -0.0009
     70  CD2       33.9110   44.5160   -5.7540 C.ar   27  TYR27      -0.0009
     71  CE1       36.3710   45.5730   -5.0950 C.ar   27  TYR27       0.0417
     72  CE2       35.0720   43.9410   -6.2420 C.ar   27  TYR27       0.0417
     73  CZ        36.2940   44.4800   -5.9140 C.ar   27  TYR27       0.1957
     74  OH        37.4330   43.8960   -6.4420 O.3    27  TYR27      -0.2866
     75  N         30.2620   48.5230   -4.9090 N.am   28  CYS28      -0.1956
     76  CA        28.8170   48.6810   -4.7450 C.3    28  CYS28       0.1843
     77  C         28.1390   48.8800   -6.1070 C.2    28  CYS28       0.2626
     78  O         28.4950   49.7760   -6.8670 O.2    28  CYS28      -0.2714
     79  CB        28.4630   49.7850   -3.7670 C.3    28  CYS28       0.0997
     80  SG        29.2480   49.5260   -2.1460 S.3    28  CYS28      -0.0797
     81  N         27.1210   48.0660   -6.4120 N.am   29  GLY29      -0.1940
     82  CA        26.4820   48.2400   -7.7360 C.3    29  GLY29       0.2014
     83  C         27.2750   47.4940   -8.8090 C.2    29  GLY29       0.2638
     84  O         28.0290   46.5690   -8.4700 O.2    29  GLY29      -0.2714
     85  N         27.0560   47.8270  -10.1020 N.am   30  TRP30      -0.1973
     86  CA        27.6690   47.1780  -11.3010 C.3    30  TRP30       0.1640
     87  C         29.0380   46.5110  -11.1370 C.2    30  TRP30       0.2290
     88  O         29.2350   45.3380  -11.4420 O.2    30  TRP30      -0.2864
     89  CB        27.8520   48.1780  -12.4520 C.3    30  TRP30       0.0576
     90  CG        28.4500   47.5760  -13.7150 C.ar   30  TRP30       0.0006
     91  CD1       28.3080   46.2720  -14.0940 C.ar   30  TRP30       0.0946
     92  CD2       29.2410   48.2010  -14.7480 C.ar   30  TRP30       0.0152
     93  NE1       28.9640   46.0440  -15.2830 N.ar   30  TRP30      -0.2442
     94  CE2       29.5390   47.2130  -15.7100 C.ar   30  TRP30       0.0810
     95  CE3       29.7170   49.4930  -14.9620 C.ar   30  TRP30       0.0012
     96  CZ2       30.2910   47.4800  -16.8580 C.ar   30  TRP30       0.0191
     97  CZ3       30.4640   49.7560  -16.1110 C.ar   30  TRP30       0.0001
     98  CH2       30.7420   48.7550  -17.0380 C.ar   30  TRP30       0.0015
     99  N         30.1630   45.7380    0.2280 N.3    44  CYS44      -0.1235
    100  CA        29.7600   45.3550   -1.1260 C.3    44  CYS44       0.1677
    101  C         30.6450   44.2400   -1.6910 C.2    44  CYS44       0.2270
    102  O         30.1520   43.3010   -2.3240 O.2    44  CYS44      -0.2867
    103  CB        29.7930   46.5840   -2.0320 C.3    44  CYS44       0.0956
    104  SG        28.5120   47.7330   -1.5550 S.3    44  CYS44      -0.0801
    105  N         29.5810   41.0640   -0.1170 N.3    47  HIS47      -0.1226
    106  CA        28.2600   40.8000   -0.7000 C.3    47  HIS47       0.1752
    107  C         28.3640   40.1870   -2.1080 C.2    47  HIS47       0.2596
    108  O         27.6430   39.2320   -2.4160 O.2    47  HIS47      -0.2718
    109  CB        27.3700   42.0930   -0.7530 C.3    47  HIS47       0.0759
    110  CG        25.9470   41.8300   -1.1660 C.ar   47  HIS47       0.0818
    111  ND1       25.4390   42.2310   -2.3940 N.ar   47  HIS47      -0.2268
    112  CD2       24.9310   41.1990   -0.5210 C.ar   47  HIS47       0.1154
    113  CE1       24.1640   41.8700   -2.4700 C.ar   47  HIS47       0.1986
    114  NE2       23.8280   41.2510   -1.3460 N.ar   47  HIS47      -0.2212
    115  N         29.2550   40.7240   -2.9330 N.am   48  ASP48      -0.1974
    116  CA        29.4530   40.1740   -4.2850 C.3    48  ASP48       0.1709
    117  C         29.9750   38.7400   -4.1870 C.2    48  ASP48       0.2293
    118  O         29.5500   37.8630   -4.9340 O.2    48  ASP48      -0.2864
    119  CB        30.4930   40.9750   -5.1170 C.3    48  ASP48       0.1436
    120  CG        30.0130   42.2950   -5.6800 C.2    48  ASP48       0.3671
    121  OD1       28.8270   42.6080   -5.4850 O.co2  48  ASP48      -0.2456
    122  OD2       30.8220   43.0140   -6.2970 O.co2  48  ASP48      -0.2456
    123  N         19.2310   38.5330   -8.1320 N.3    60  LYS60      -0.1245
    124  CA        18.6480   39.8000   -8.5020 C.3    60  LYS60       0.1561
    125  C         17.1410   39.7300   -8.6670 C.2    60  LYS60       0.2260
    126  O         16.4470   40.7260   -8.4660 O.2    60  LYS60      -0.2867
    127  CB        19.3090   40.3030   -9.7810 C.3    60  LYS60       0.0271
    128  CG        20.5590   41.1280   -9.5050 C.3    60  LYS60       0.0035
    129  CD        21.5240   41.1350  -10.6800 C.3    60  LYS60       0.0206
    130  CE        22.8750   41.6720  -10.2440 C.3    60  LYS60       0.1093
    131  NZ        23.8450   41.7230  -11.3760 N.3    60  LYS60      -0.1314
    132  N         26.4170   47.5890    6.2030 N.3    96  PHE96      -0.1241
    133  CA        26.2150   49.0150    5.8800 C.3    96  PHE96       0.1605
    134  C         25.8660   49.8460    7.1320 C.2    96  PHE96       0.2264
    135  O         26.3580   50.9380    7.3030 O.2    96  PHE96      -0.2867
    136  CB        25.0610   49.2130    4.8930 C.3    96  PHE96       0.0534
    137  CG        25.3640   48.7430    3.4980 C.ar   96  PHE96      -0.0203
    138  CD1       26.6650   48.7280    2.9910 C.ar   96  PHE96      -0.0042
    139  CD2       24.3310   48.3010    2.7040 C.ar   96  PHE96      -0.0042
    140  CE1       26.8760   48.2830    1.6690 C.ar   96  PHE96      -0.0003
    141  CE2       24.5470   47.8780    1.4170 C.ar   96  PHE96      -0.0003
    142  CZ        25.7700   47.8660    0.8970 C.ar   96  PHE96      -0.0000
@<TRIPOS>BOND
     1    98    96   ar
     2    98    97   ar
     3    96    94   ar
     4    97    95   ar
     5    94    93   ar
     6    94    92   ar
     7    93    91   ar
     8    95    92   ar
     9    92    90   ar
    10    91    90   ar
    11    90    89    1
    12    89    86    1
    13    88    87    2
    14   131   130    1
    15    86    87    1
    16    86    85    1
    17   129   130    1
    18   129   128    1
    19    85    83   am
    20   127   128    1
    21   127   124    1
    22     7     6    1
    23    83    84    2
    24    83    82    1
    25   125   124    1
    26   125   126    2
    27   124   123    1
    28    44    42    1
    29    60    59    2
    30    43    41    1
    31    82    81    1
    32     6     8    1
    33     6     5    1
    34    62    61    1
    35    59    58    1
    36    61    58    1
    37    42    41    1
    38    78    77    2
    39     5     2    1
    40    41    38    1
    41    74    73    1
    42    81    77   am
    43    58    57    1
    44   122   120   ar
    45    72    73   ar
    46    72    70   ar
    47    77    76    1
    48    73    71   ar
    49     1     2    1
    50    70    68   ar
    51    66    65    2
    52   120   121   ar
    53   120   119    1
    54    63    64    1
    55    64    65    1
    56    64    67    1
    57     2     3    1
    58    38    39    1
    59    38    37    1
    60    65    75   am
    61   119   116    1
    62    57    47   am
    63    71    69   ar
    64    39    40    2
    65   118   117    2
    66    68    69   ar
    67    68    67    1
    68    75    76    1
    69     3     4    2
    70    76    79    1
    71    37    34   am
    72   116   117    1
    73   116   115    1
    74    48    47    2
    75    47    46    1
    76    35    34    2
    77    79    80    1
    78    34    33    1
    79   115   107   am
    80    46    45    1
    81    46    49    1
    82    36    33    1
    83   113   111   ar
    84   113   114   ar
    85   108   107    2
    86   111   110   ar
    87   102   101    2
    88    33    32    1
    89    16    18   ar
    90    16    14   ar
    91    80   104    1
    92   107   106    1
    93   103   104    1
    94   103   100    1
    95    13    14    1
    96    13    10    1
    97    18    19   ar
    98   101   100    1
    99    49    50    1
   100    20    21    1
   101    20    11   am
   102    21    22    1
   103   114   112   ar
   104    14    15   ar
   105   110   109    1
   106   110   112   ar
   107     9    10    1
   108   100    99    1
   109   109   106    1
   110    10    11    1
   111   106   105    1
   112    11    12    2
   113    19    17   ar
   114    50    51   ar
   115    50    52   ar
   116    22    23    2
   117    31    29    1
   118    15    17   ar
   119    51    53   ar
   120    52    54   ar
   121   142   141   ar
   122   142   140   ar
   123    29    28    1
   124   141   139   ar
   125   140   138   ar
   126    30    28    1
   127    53    55   ar
   128    28    25    1
   129    54    55   ar
   130    55    56    1
   131   139   137   ar
   132   138   137   ar
   133    24    25    1
   134    25    26    1
   135   137   136    1
   136    26    27    2
   137   136   133    1
   138   133   132    1
   139   133   134    1
   140   134   135    2
