@<TRIPOS>MOLECULE
tmp/2qveB00.pdb
 126 117 0 0 0
SMALL
GASTEIGER

@<TRIPOS>ATOM
      1  N         31.5820   20.5170    8.3130 N.3    52  TYR52      -0.1245
      2  CA        30.7730   19.3280    8.1340 C.3    52  TYR52       0.1568
      3  C         30.1700   19.0750    6.7530 C.2    52  TYR52       0.2261
      4  O         29.3920   19.8150    6.3000 O.2    52  TYR52      -0.2867
      5  CB        29.5830   19.1670    9.1070 C.3    52  TYR52       0.0357
      6  CG        28.8340   17.8480    8.8380 C.3    52  TYR52       0.0460
      7  CD1       29.4290   16.6620    8.9710 C.2    52  TYR52      -0.0188
      8  CD2       27.5990   17.8340    8.3990 C.2    52  TYR52      -0.0188
      9  CE1       28.8440   15.6020    8.7570 C.2    52  TYR52       0.0378
     10  CE2       26.9640   16.7370    8.1760 C.2    52  TYR52       0.0378
     11  CZ        27.5840   15.6050    8.3120 C.2    52  TYR52       0.1951
     12  OH        26.9820   14.5560    8.0300 O.2    52  TYR52      -0.2866
     13  N         30.8290   12.1160    6.1060 N.3    58  TYR58      -0.1227
     14  CA        29.4630   12.2950    6.5750 C.3    58  TYR58       0.1736
     15  C         29.0520   11.4610    7.7760 C.2    58  TYR58       0.2596
     16  O         29.6010   10.3800    8.0300 O.2    58  TYR58      -0.2718
     17  CB        28.4870   12.0610    5.4240 C.3    58  TYR58       0.0548
     18  CG        28.6660   13.0620    4.3180 C.ar   58  TYR58      -0.0200
     19  CD1       29.4730   12.7760    3.2150 C.ar   58  TYR58      -0.0009
     20  CD2       28.0840   14.3230    4.4020 C.ar   58  TYR58      -0.0009
     21  CE1       29.6960   13.7230    2.2290 C.ar   58  TYR58       0.0417
     22  CE2       28.3020   15.2800    3.4200 C.ar   58  TYR58       0.0417
     23  CZ        29.1090   14.9730    2.3380 C.ar   58  TYR58       0.1957
     24  OH        29.3300   15.9180    1.3670 O.3    58  TYR58      -0.2866
     25  N         28.0700   11.9740    8.5090 N.am   59  GLY59      -0.1957
     26  CA        27.5830   11.2860    9.6890 C.3    59  GLY59       0.1869
     27  C         28.7240   10.9420   10.6250 C.2    59  GLY59       0.2309
     28  O         29.5450   11.8000   10.9700 O.2    59  GLY59      -0.2863
     29  N         31.3780    9.3740   10.0600 N.3    61  MET61      -0.1245
     30  CA        32.6950    9.5500    9.4570 C.3    61  MET61       0.1570
     31  C         33.1230   11.0050    9.3360 C.2    61  MET61       0.2261
     32  O         33.9670   11.3550    8.4990 O.2    61  MET61      -0.2867
     33  CB        32.7430    8.8600    8.0930 C.3    61  MET61       0.0387
     34  CG        32.7260    7.3360    8.1910 C.3    61  MET61       0.0595
     35  SD        32.6020    6.5490    6.5790 S.3    61  MET61      -0.1393
     36  CE        30.8500    6.8390    6.2260 C.3    61  MET61       0.0692
     37  N         28.1200   11.2040   -1.8730 N.3    78  LEU78      -0.1245
     38  CA        27.0740   11.3360   -0.8580 C.3    78  LEU78       0.1561
     39  C         25.6810   11.0280   -1.4200 C.2    78  LEU78       0.2260
     40  O         24.9620   10.1720   -0.8910 O.2    78  LEU78      -0.2867
     41  CB        27.0730   12.7560   -0.2940 C.3    78  LEU78       0.0270
     42  CG        25.9120   13.1130    0.6360 C.3    78  LEU78       0.0019
     43  CD1       25.9810   12.2740    1.9140 C.3    78  LEU78       0.0001
     44  CD2       25.9730   14.6090    0.9540 C.3    78  LEU78       0.0001
     45  N         23.6320    7.3970   -0.8120 N.3    82  HIS82      -0.1241
     46  CA        22.4380    7.5360    0.0170 C.3    82  HIS82       0.1621
     47  C         21.1240    7.3750   -0.7280 C.2    82  HIS82       0.2264
     48  O         20.0540    7.4270   -0.1260 O.2    82  HIS82      -0.2867
     49  CB        22.4720    8.8590    0.7810 C.3    82  HIS82       0.0745
     50  CG        23.4510    8.8600    1.9110 C.ar   82  HIS82       0.0817
     51  ND1       24.7920    8.5940    1.7300 N.ar   82  HIS82      -0.2268
     52  CD2       23.2820    9.0540    3.2400 C.ar   82  HIS82       0.1154
     53  CE1       25.4070    8.6230    2.8990 C.ar   82  HIS82       0.1986
     54  NE2       24.5140    8.9000    3.8320 N.ar   82  HIS82      -0.2212
     55  N         16.9170   11.6460    4.3870 N.3   142  LEU142     -0.1245
     56  CA        18.0610   11.4030    3.5020 C.3   142  LEU142      0.1561
     57  C         17.8270   10.6070    2.2260 C.2   142  LEU142      0.2260
     58  O         18.0850   11.1010    1.1260 O.2   142  LEU142     -0.2867
     59  CB        19.2050   10.7460    4.2830 C.3   142  LEU142      0.0270
     60  CG        19.9050   11.5920    5.3460 C.3   142  LEU142      0.0019
     61  CD1       21.0050   10.7680    6.0040 C.3   142  LEU142      0.0001
     62  CD2       20.4970   12.8460    4.7080 C.3   142  LEU142      0.0001
     63  N         24.8320   17.8670    0.0570 N.3   187  LEU187     -0.1245
     64  CA        24.3310   17.7760    1.4230 C.3   187  LEU187      0.1561
     65  C         23.1120   18.6700    1.6470 C.2   187  LEU187      0.2260
     66  O         22.1280   18.2500    2.2620 O.2   187  LEU187     -0.2867
     67  CB        25.4390   18.1760    2.4070 C.3   187  LEU187      0.0270
     68  CG        25.1180   18.1430    3.9070 C.3   187  LEU187      0.0019
     69  CD1       24.9110   16.7030    4.3510 C.3   187  LEU187      0.0001
     70  CD2       26.2480   18.7870    4.6990 C.3   187  LEU187      0.0001
     71  N         19.7820   17.0630    3.2940 N.3   191  ASN191     -0.1240
     72  CA        19.8120   17.1470    4.7540 C.3   191  ASN191      0.1653
     73  C         18.6890   17.9330    5.4260 C.2   191  ASN191      0.2266
     74  O         18.9550   18.8590    6.1960 O.2   191  ASN191     -0.2867
     75  CB        21.1780   17.6970    5.1830 C.3   191  ASN191      0.1155
     76  CG        21.4400   17.5420    6.6660 C.2   191  ASN191      0.2627
     77  OD1       21.1340   16.5090    7.2650 O.2   191  ASN191     -0.2716
     78  ND2       22.0340   18.5650    7.2640 N.am  191  ASN191     -0.0877
     79  N         21.9010   21.5900    7.4520 N.3   327  ASN327     -0.1240
     80  CA        23.0690   21.6760    8.3340 C.3   327  ASN327      0.1653
     81  C         24.3370   21.3240    7.5550 C.2   327  ASN327      0.2266
     82  O         24.3300   20.4100    6.7350 O.2   327  ASN327     -0.2867
     83  CB        22.9140   20.7100    9.5180 C.3   327  ASN327      0.1155
     84  CG        23.9680   20.9320   10.6080 C.2   327  ASN327      0.2627
     85  OD1       24.0200   21.9960   11.2280 O.2   327  ASN327     -0.2716
     86  ND2       24.8090   19.9190   10.8450 N.am  327  ASN327     -0.0877
     87  N         24.5240   22.3450   13.8560 N.3   339  GLY339     -0.1225
     88  CA        23.4840   21.8870   14.7510 C.3   339  GLY339      0.1811
     89  C         22.7300   20.6890   14.2300 C.2   339  GLY339      0.2280
     90  O         23.3310   19.7690   13.6810 O.2   339  GLY339     -0.2866
     91  N         17.9240   19.5490   10.8080 N.3   342  PHE342     -0.1241
     92  CA        17.4170   18.5430    9.8820 C.3   342  PHE342      0.1605
     93  C         16.5450   17.5470   10.6540 C.2   342  PHE342      0.2264
     94  O         15.8490   16.7150   10.0530 O.2   342  PHE342     -0.2867
     95  CB        18.5970   17.8010    9.2660 C.3   342  PHE342      0.0534
     96  CG        19.5830   17.3070   10.2900 C.ar  342  PHE342     -0.0203
     97  CD1       19.2510   16.2610   11.1430 C.ar  342  PHE342     -0.0042
     98  CD2       20.8150   17.9330   10.4450 C.ar  342  PHE342     -0.0042
     99  CE1       20.1330   15.8490   12.1430 C.ar  342  PHE342     -0.0003
    100  CE2       21.7010   17.5310   11.4360 C.ar  342  PHE342     -0.0003
    101  CZ        21.3580   16.4870   12.2890 C.ar  342  PHE342     -0.0000
    102  N         24.1340    4.2660   12.1560 N.3   424  ASN424     -0.1240
    103  CA        25.3410    4.9950   11.7780 C.3   424  ASN424      0.1653
    104  C         26.3480    5.0920   12.9200 C.2   424  ASN424      0.2266
    105  O         26.6440    6.1840   13.3970 O.2   424  ASN424     -0.2867
    106  CB        24.9470    6.4010   11.3140 C.3   424  ASN424      0.1155
    107  CG        25.9860    7.0290   10.4140 C.2   424  ASN424      0.2627
    108  OD1       26.4210    6.4190    9.4310 O.2   424  ASN424     -0.2716
    109  ND2       26.3820    8.2540   10.7320 N.am  424  ASN424     -0.0877
    110  N         25.9680    7.5100   15.6910 N.3   427  ASN427     -0.1225
    111  CA        25.9830    8.9600   15.5000 C.3   427  ASN427      0.1785
    112  C         24.5220    9.4290   15.4750 C.2   427  ASN427      0.2597
    113  O         24.1730   10.4660   16.0540 O.2   427  ASN427     -0.2718
    114  CB        26.6630    9.3450   14.1850 C.3   427  ASN427      0.1169
    115  CG        26.6120   10.8480   13.9190 C.2   427  ASN427      0.2627
    116  OD1       27.0390   11.6510   14.7490 O.2   427  ASN427     -0.2716
    117  ND2       26.0880   11.2300   12.7580 N.am  427  ASN427     -0.0877
    118  N         23.6730    8.6620   14.7960 N.am  428  GLN428     -0.1979
    119  CA        22.2530    8.9930   14.7370 C.3   428  GLN428      0.1601
    120  C         21.5850    8.1590   15.8170 C.2   428  GLN428      0.2287
    121  O         20.8700    7.2080   15.5140 O.2   428  GLN428     -0.2864
    122  CB        21.6540    8.6350   13.3700 C.3   428  GLN428      0.0394
    123  CG        22.3040    9.3400   12.1930 C.3   428  GLN428      0.0908
    124  CD        21.4120    9.3830   10.9550 C.2   428  GLN428      0.2608
    125  OE1       21.9000    9.4910    9.8300 O.2   428  GLN428     -0.2717
    126  NE2       20.1020    9.3200   11.1610 N.am  428  GLN428     -0.0878
@<TRIPOS>BOND
     1    37    38    1
     2    39    40    2
     3    39    38    1
     4    38    41    1
     5    45    46    1
     6    47    48    2
     7    47    46    1
     8    41    42    1
     9    46    49    1
    10    63    64    1
    11    42    44    1
    12    42    43    1
    13    49    50    1
    14    58    57    2
    15    24    23    1
    16    64    65    1
    17    64    67    1
    18    65    66    2
    19    51    50   ar
    20    51    53   ar
    21    50    52   ar
    22    57    56    1
    23    21    23   ar
    24    21    19   ar
    25    23    22   ar
    26    67    68    1
    27    53    54   ar
    28    19    18   ar
    29    52    54   ar
    30    71    72    1
    31    22    20   ar
    32    56    59    1
    33    56    55    1
    34    68    69    1
    35    68    70    1
    36    59    60    1
    37    18    20   ar
    38    18    17    1
    39    62    60    1
    40    72    75    1
    41    72    73    1
    42    75    76    1
    43    60    61    1
    44    17    14    1
    45    73    74    2
    46    13    14    1
    47    36    35    1
    48     4     3    2
    49    14    15    1
    50    35    34    1
    51    76    78   am
    52    76    77    2
    53    82    81    2
    54     3     2    1
    55    79    80    1
    56    81    80    1
    57    15    16    2
    58    15    25   am
    59    12    11    2
    60    33    34    1
    61    33    30    1
    62     2     1    1
    63     2     5    1
    64    10    11    1
    65    10     8    2
    66    11     9    1
    67    80    83    1
    68     8     6    1
    69    32    31    2
    70    25    26    1
    71     9     7    2
    72     6     7    1
    73     6     5    1
    74    95    92    1
    75    95    96    1
    76    31    30    1
    77   108   107    2
    78    30    29    1
    79    83    84    1
    80    26    27    1
    81   125   124    2
    82    92    93    1
    83    92    91    1
    84    94    93    2
    85    96    98   ar
    86    96    97   ar
    87   107   109   am
    88   107   106    1
    89    98   100   ar
    90    84    86   am
    91    84    85    2
    92    27    28    2
    93   124   126   am
    94   124   123    1
    95    97    99   ar
    96   106   103    1
    97   100   101   ar
    98   103   102    1
    99   103   104    1
   100    99   101   ar
   101   123   122    1
   102   117   115   am
   103   104   105    2
   104   122   119    1
   105    90    89    2
   106    87    88    1
   107   115   114    1
   108   115   116    2
   109   114   111    1
   110    89    88    1
   111   119   118    1
   112   119   120    1
   113   118   112   am
   114   112   111    1
   115   112   113    2
   116   111   110    1
   117   121   120    2
