@<TRIPOS>MOLECULE
tmp/2qvhB00.pdb
 156 143 0 0 0
SMALL
GASTEIGER

@<TRIPOS>ATOM
      1  N        -16.0730   -4.0450  -20.1790 N.3    15  PHE15      -0.1227
      2  CA       -17.1110   -3.9930  -21.2090 C.3    15  PHE15       0.1736
      3  C        -18.4460   -4.3930  -20.5880 C.2    15  PHE15       0.2595
      4  O        -18.5220   -5.3570  -19.8250 O.2    15  PHE15      -0.2718
      5  CB       -16.7580   -4.9410  -22.3620 C.3    15  PHE15       0.0547
      6  CG       -17.6450   -4.7920  -23.5660 C.ar   15  PHE15      -0.0202
      7  CD1      -17.5720   -3.6550  -24.3630 C.ar   15  PHE15      -0.0042
      8  CD2      -18.5420   -5.7950  -23.9130 C.ar   15  PHE15      -0.0042
      9  CE1      -18.3790   -3.5210  -25.4910 C.ar   15  PHE15      -0.0003
     10  CE2      -19.3550   -5.6700  -25.0430 C.ar   15  PHE15      -0.0003
     11  CZ       -19.2710   -4.5290  -25.8330 C.ar   15  PHE15      -0.0000
     12  N        -19.5000   -3.6560  -20.9150 N.am   16  ARG16      -0.1980
     13  CA       -20.8180   -3.9300  -20.3560 C.3    16  ARG16       0.1597
     14  C        -20.7290   -4.0140  -18.8290 C.2    16  ARG16       0.2287
     15  O        -21.3670   -4.8640  -18.2050 O.2    16  ARG16      -0.2864
     16  CB       -21.3970   -5.2440  -20.9030 C.3    16  ARG16       0.0334
     17  CG       -22.8650   -5.4570  -20.5170 C.3    16  ARG16       0.0492
     18  CD       -23.2410   -6.9300  -20.4150 C.3    16  ARG16       0.2205
     19  NE       -24.5130   -7.1290  -19.7220 N.pl3  16  ARG16      -0.0865
     20  CZ       -24.6920   -6.9770  -18.4100 C.cat  16  ARG16       0.5346
     21  NH1      -23.6780   -6.6150  -17.6250 N.pl3  16  ARG16       0.1354
     22  NH2      -25.8860   -7.2070  -17.8740 N.pl3  16  ARG16       0.1354
     23  N        -25.6210  -12.8860  -17.3350 N.3    37  PHE37      -0.1241
     24  CA       -24.9370  -11.9680  -16.4400 C.3    37  PHE37       0.1605
     25  C        -25.5110  -12.0730  -15.0230 C.2    37  PHE37       0.2264
     26  O        -26.6840  -12.3900  -14.8360 O.2    37  PHE37      -0.2867
     27  CB       -25.0320  -10.5590  -17.0140 C.3    37  PHE37       0.0534
     28  CG       -24.3230  -10.4250  -18.3280 C.ar   37  PHE37      -0.0203
     29  CD1      -22.9340  -10.3810  -18.3750 C.ar   37  PHE37      -0.0042
     30  CD2      -25.0340  -10.4510  -19.5240 C.ar   37  PHE37      -0.0042
     31  CE1      -22.2570  -10.3730  -19.5970 C.ar   37  PHE37      -0.0003
     32  CE2      -24.3720  -10.4440  -20.7480 C.ar   37  PHE37      -0.0003
     33  CZ       -22.9770  -10.4060  -20.7850 C.ar   37  PHE37      -0.0000
     34  N        -18.6390   -7.5680  -37.4770 N.3    71  ASN71      -0.1240
     35  CA       -18.2410   -6.1840  -37.2860 C.3    71  ASN71       0.1653
     36  C        -17.3060   -6.1190  -36.0830 C.2    71  ASN71       0.2266
     37  O        -17.3240   -6.9990  -35.2230 O.2    71  ASN71      -0.2867
     38  CB       -19.4650   -5.2920  -37.0220 C.3    71  ASN71       0.1155
     39  CG       -20.2330   -5.6930  -35.7670 C.2    71  ASN71       0.2627
     40  OD1      -21.2310   -6.4060  -35.8420 O.2    71  ASN71      -0.2716
     41  ND2      -19.7650   -5.2350  -34.6050 N.am   71  ASN71      -0.0877
     42  N        -16.0660   -4.7260  -32.5570 N.3    73  THR73      -0.1218
     43  CA       -16.7750   -4.2240  -31.3890 C.3    73  THR73       0.1862
     44  C        -15.8540   -3.2500  -30.6660 C.2    73  THR73       0.2287
     45  O        -14.7750   -3.6330  -30.2080 O.2    73  THR73      -0.2866
     46  CB       -17.1620   -5.3700  -30.4400 C.3    73  THR73       0.1770
     47  OG1      -18.0230   -6.2830  -31.1320 O.3    73  THR73      -0.2211
     48  CG2      -17.8790   -4.8310  -29.2080 C.3    73  THR73       0.0375
     49  N        -19.0570   -1.2290  -34.5700 N.3    95  LYS95      -0.1245
     50  CA       -20.1340   -0.7590  -33.7010 C.3    95  LYS95       0.1561
     51  C        -19.4370   -0.1180  -32.5090 C.2    95  LYS95       0.2260
     52  O        -18.6460   -0.7640  -31.8200 O.2    95  LYS95      -0.2867
     53  CB       -21.0140   -1.9160  -33.2260 C.3    95  LYS95       0.0271
     54  CG       -22.5050   -1.6220  -33.3690 C.3    95  LYS95       0.0035
     55  CD       -23.2680   -1.8570  -32.0790 C.3    95  LYS95       0.0206
     56  CE       -23.1580   -3.2950  -31.6470 C.3    95  LYS95       0.1093
     57  NZ       -23.7260   -3.5190  -30.2920 N.3    95  LYS95      -0.1314
     58  N        -21.7520    2.0430  -36.6870 N.3   126  ARG126     -0.1245
     59  CA       -22.9770    1.9700  -35.8950 C.3   126  ARG126      0.1563
     60  C        -22.6250    2.4010  -34.4780 C.2   126  ARG126      0.2260
     61  O        -21.4590    2.3850  -34.0880 O.2   126  ARG126     -0.2867
     62  CB       -23.4930    0.5350  -35.8150 C.3   126  ARG126      0.0307
     63  CG       -23.5530   -0.2090  -37.1200 C.3   126  ARG126      0.0489
     64  CD       -23.5770   -1.7030  -36.8300 C.3   126  ARG126      0.2205
     65  NE       -23.6220   -2.5020  -38.0470 N.pl3 126  ARG126     -0.0865
     66  CZ       -23.5480   -3.8270  -38.0670 C.cat 126  ARG126      0.5346
     67  NH1      -23.4190   -4.5050  -36.9300 N.pl3 126  ARG126      0.1354
     68  NH2      -23.6130   -4.4740  -39.2210 N.pl3 126  ARG126      0.1354
     69  N        -24.0410    2.0300  -30.2750 N.3   128  ASP128     -0.1239
     70  CA       -24.9570    1.3430  -29.3780 C.3   128  ASP128      0.1674
     71  C        -25.0480    2.1820  -28.1090 C.2   128  ASP128      0.2266
     72  O        -24.0460    2.4160  -27.4280 O.2   128  ASP128     -0.2867
     73  CB       -24.4510   -0.0600  -29.0360 C.3   128  ASP128      0.1410
     74  CG       -25.5560   -0.9500  -28.4950 C.2   128  ASP128      0.3668
     75  OD1      -26.4370   -0.4280  -27.7730 O.co2 128  ASP128     -0.2456
     76  OD2      -25.5400   -2.1680  -28.7870 O.co2 128  ASP128     -0.2456
     77  N        -27.4840    1.4480  -25.7090 N.3   130  ASN130     -0.1240
     78  CA       -28.0310    0.6020  -24.6530 C.3   130  ASN130      0.1653
     79  C        -29.1390    1.3310  -23.8940 C.2   130  ASN130      0.2266
     80  O        -29.2190    1.2550  -22.6690 O.2   130  ASN130     -0.2867
     81  CB       -26.9310    0.1560  -23.6850 C.3   130  ASN130      0.1155
     82  CG       -25.9470   -0.8020  -24.3270 C.2   130  ASN130      0.2627
     83  OD1      -24.7760   -0.4730  -24.5210 O.2   130  ASN130     -0.2716
     84  ND2      -26.4240   -1.9930  -24.6720 N.am  130  ASN130     -0.0877
     85  N        -28.2610    1.7250  -32.4420 N.3   153  GLU153     -0.1245
     86  CA       -28.8330    0.6270  -31.6740 C.3   153  GLU153      0.1567
     87  C        -29.3540    1.0540  -30.3110 C.2   153  GLU153      0.2260
     88  O        -28.6140    1.6080  -29.4930 O.2   153  GLU153     -0.2867
     89  CB       -27.8020   -0.4930  -31.5090 C.3   153  GLU153      0.0388
     90  CG       -28.4050   -1.8280  -31.0670 C.3   153  GLU153      0.1160
     91  CD       -27.4360   -2.9900  -31.2120 C.2   153  GLU153      0.3649
     92  OE1      -26.7760   -3.0830  -32.2680 O.co2 153  GLU153     -0.2457
     93  OE2      -27.3450   -3.8150  -30.2800 O.co2 153  GLU153     -0.2457
     94  N        -32.6100   -3.6710  -29.7100 N.3   176  ASP176     -0.1239
     95  CA       -31.8790   -4.7650  -29.0740 C.3   176  ASP176      0.1674
     96  C        -32.5230   -5.1350  -27.7370 C.2   176  ASP176      0.2266
     97  O        -33.2290   -6.1380  -27.6610 O.2   176  ASP176     -0.2867
     98  CB       -30.4070   -4.3820  -28.8770 C.3   176  ASP176      0.1410
     99  CG       -29.5760   -5.5150  -28.2870 C.2   176  ASP176      0.3668
    100  OD1      -30.0660   -6.6610  -28.2330 O.co2 176  ASP176     -0.2456
    101  OD2      -28.4210   -5.2550  -27.8820 O.co2 176  ASP176     -0.2456
    102  N        -34.8480   -8.4320  -26.7540 N.3   180  ARG180     -0.1245
    103  CA       -34.4640   -9.4890  -25.8170 C.3   180  ARG180      0.1563
    104  C        -34.8950   -9.3460  -24.3580 C.2   180  ARG180      0.2260
    105  O        -34.9300  -10.3380  -23.6310 O.2   180  ARG180     -0.2867
    106  CB       -32.9440   -9.7190  -25.8740 C.3   180  ARG180      0.0307
    107  CG       -32.0760   -8.4980  -25.5420 C.3   180  ARG180      0.0489
    108  CD       -30.5940   -8.8520  -25.6490 C.3   180  ARG180      0.2205
    109  NE       -29.7350   -7.6720  -25.6900 N.pl3 180  ARG180     -0.0865
    110  CZ       -29.3980   -6.9400  -24.6360 C.cat 180  ARG180      0.5346
    111  NH1      -29.8350   -7.2600  -23.4230 N.pl3 180  ARG180      0.1354
    112  NH2      -28.6330   -5.8640  -24.8080 N.pl3 180  ARG180      0.1354
    113  N        -29.7900  -12.0450  -30.2590 N.3   200  LYS200     -0.1245
    114  CA       -28.7150  -12.6350  -29.4680 C.3   200  LYS200      0.1561
    115  C        -29.2720  -13.9930  -29.0550 C.2   200  LYS200      0.2260
    116  O        -30.3530  -14.0810  -28.4780 O.2   200  LYS200     -0.2867
    117  CB       -28.4000  -11.7800  -28.2410 C.3   200  LYS200      0.0271
    118  CG       -27.8040  -10.4220  -28.5750 C.3   200  LYS200      0.0035
    119  CD       -27.4490   -9.6600  -27.2960 C.3   200  LYS200      0.0206
    120  CE       -26.8820   -8.2640  -27.5770 C.3   200  LYS200      0.1093
    121  NZ       -25.5460   -8.3080  -28.2710 N.3   200  LYS200     -0.1314
    122  N        -25.7740  -10.7630  -32.9090 N.3   224  SER224     -0.1202
    123  CA       -24.6340  -10.3040  -32.1180 C.3   224  SER224      0.2020
    124  C        -24.5030  -11.1800  -30.8830 C.2   224  SER224      0.2619
    125  O        -25.4370  -11.8900  -30.5160 O.2   224  SER224     -0.2717
    126  CB       -24.7750   -8.8200  -31.7360 C.3   224  SER224      0.2103
    127  OG       -26.0210   -8.5360  -31.1250 O.3   224  SER224     -0.2182
    128  N        -23.3410  -11.1370  -30.2430 N.am  225  SER225     -0.1937
    129  CA       -23.0860  -11.9830  -29.0780 C.3   225  SER225      0.2055
    130  C        -23.4000  -11.3750  -27.7140 C.2   225  SER225      0.2643
    131  O        -23.7740  -10.2090  -27.5860 O.2   225  SER225     -0.2714
    132  CB       -21.6150  -12.3790  -29.0570 C.3   225  SER225      0.2130
    133  OG       -20.8540  -11.3010  -28.5370 O.3   225  SER225     -0.2179
    134  N        -23.2260  -12.2130  -26.6960 N.am  226  ALA226     -0.1963
    135  CA       -23.3910  -11.8240  -25.3050 C.3   226  ALA226      0.1728
    136  C        -21.9900  -12.0020  -24.7040 C.2   226  ALA226      0.2616
    137  O        -21.8300  -12.3610  -23.5340 O.2   226  ALA226     -0.2715
    138  CB       -24.3970  -12.7390  -24.6120 C.3   226  ALA226      0.0334
    139  N        -20.9720  -11.7520  -25.5270 N.am  227  VAL227     -0.1977
    140  CA       -19.5790  -11.8850  -25.1010 C.3   227  VAL227      0.1596
    141  C        -19.2940  -13.2710  -24.5290 C.2   227  VAL227      0.2287
    142  O        -18.7650  -13.4070  -23.4210 O.2   227  VAL227     -0.2864
    143  CB       -19.2060  -10.8340  -24.0360 C.3   227  VAL227      0.0276
    144  CG1      -17.6910  -10.7730  -23.8750 C.3   227  VAL227      0.0022
    145  CG2      -19.7490   -9.4770  -24.4370 C.3   227  VAL227      0.0022
    146  N        -22.2650   -8.9780  -34.8460 N.3   251  GLY251     -0.1225
    147  CA       -21.4260   -8.6920  -33.6940 C.3   251  GLY251      0.1811
    148  C        -20.9190   -9.9400  -32.9960 C.2   251  GLY251      0.2280
    149  O        -21.1920  -10.1650  -31.8090 O.2   251  GLY251     -0.2866
    150  N        -16.3030  -10.7890  -30.6890 N.3   254  THR254     -0.1218
    151  CA       -16.1050  -10.3890  -29.3060 C.3   254  THR254      0.1862
    152  C        -15.1510  -11.2790  -28.5090 C.2   254  THR254      0.2287
    153  O        -14.8220  -10.9540  -27.3710 O.2   254  THR254     -0.2866
    154  CB       -17.4600  -10.3200  -28.5620 C.3   254  THR254      0.1770
    155  OG1      -18.1820  -11.5490  -28.7410 O.3   254  THR254     -0.2211
    156  CG2      -18.3000   -9.1740  -29.0970 C.3   254  THR254      0.0375
@<TRIPOS>BOND
     1    68    66    1
     2    66    65    2
     3    66    67    1
     4    65    64    1
     5    34    35    1
     6    35    38    1
     7    35    36    1
     8    63    64    1
     9    63    62    1
    10    38    39    1
    11    58    59    1
    12    36    37    2
    13    59    62    1
    14    59    60    1
    15    40    39    2
    16    39    41   am
    17   146   147    1
    18    49    50    1
    19    60    61    2
    20    50    53    1
    21    50    51    1
    22   147   148    1
    23    54    53    1
    24    54    55    1
    25   148   149    2
    26   122   123    1
    27    42    43    1
    28    51    52    2
    29    85    86    1
    30    92    91   ar
    31   123   126    1
    32   123   124    1
    33    55    56    1
    34   126   127    1
    35    86    89    1
    36    86    87    1
    37    56    57    1
    38    89    90    1
    39    43    44    1
    40    43    46    1
    41    91    90    1
    42    91    93   ar
    43    47    46    1
    44   124   125    2
    45   124   128   am
    46   150   151    1
    47    44    45    2
    48    46    48    1
    49    87    88    2
    50    69    70    1
    51   113   114    1
    52   128   129    1
    53    94    95    1
    54   114   115    1
    55   114   117    1
    56    70    73    1
    57    70    71    1
    58   151   154    1
    59   151   152    1
    60   156   154    1
    61   129   132    1
    62   129   130    1
    63    95    98    1
    64    95    96    1
    65   132   133    1
    66   115   116    2
    67    73    74    1
    68    98    99    1
    69    76    74   ar
    70   155   154    1
    71   118   117    1
    72   118   119    1
    73   152   153    2
    74    74    75   ar
    75    99   100   ar
    76    99   101   ar
    77   121   120    1
    78    71    72    2
    79    96    97    2
    80   130   131    2
    81   130   134   am
    82   120   119    1
    83   102   103    1
    84   134   135    1
    85   106   103    1
    86   106   107    1
    87    11     9   ar
    88    11    10   ar
    89   103   104    1
    90    77    78    1
    91   109   108    1
    92   109   110    2
    93   108   107    1
    94   139   140    1
    95   139   136   am
    96     9     7   ar
    97   135   136    1
    98   135   138    1
    99   140   141    1
   100   140   143    1
   101    10     8   ar
   102   112   110    1
   103   136   137    2
   104    84    82   am
   105    78    79    1
   106    78    81    1
   107   110   111    1
   108   141   142    2
   109    83    82    2
   110   145   143    1
   111     7     6   ar
   112   104   105    2
   113    82    81    1
   114   143   144    1
   115     8     6   ar
   116    79    80    2
   117     6     5    1
   118     5     2    1
   119     2     3    1
   120     2     1    1
   121    12     3   am
   122    12    13    1
   123    16    17    1
   124    16    13    1
   125    33    32   ar
   126    33    31   ar
   127    32    30   ar
   128     3     4    2
   129    17    18    1
   130    18    19    1
   131    13    14    1
   132    19    20    2
   133    31    29   ar
   134    30    28   ar
   135    14    15    2
   136    20    22    1
   137    20    21    1
   138    29    28   ar
   139    28    27    1
   140    23    24    1
   141    27    24    1
   142    24    25    1
   143    25    26    2
