@<TRIPOS>MOLECULE
tmp/2qvnA01.pdb
 92 87 0 0 0
SMALL
GASTEIGER

@<TRIPOS>ATOM
      1  N         38.2530   12.2880   25.3610 N.3   144  VAL144     -0.1245
      2  CA        37.9960   12.1070   23.9370 C.3   144  VAL144      0.1561
      3  C         37.9950   10.6230   23.5700 C.2   144  VAL144      0.2260
      4  O         37.1290   10.1630   22.8220 O.2   144  VAL144     -0.2867
      5  CB        39.0400   12.8850   23.0940 C.3   144  VAL144      0.0252
      6  CG1       38.9810   12.4840   21.6080 C.3   144  VAL144      0.0019
      7  CG2       38.8290   14.3900   23.2660 C.3   144  VAL144      0.0019
      8  N         34.7640    8.8180   25.1430 N.3   147  ILE147     -0.1231
      9  CA        33.5670    9.1820   24.3760 C.3   147  ILE147      0.1692
     10  C         33.5540    8.4880   23.0130 C.2   147  ILE147      0.2591
     11  O         32.5500    7.9090   22.6240 O.2   147  ILE147     -0.2718
     12  CB        33.4640   10.7160   24.1750 C.3   147  ILE147      0.0266
     13  CG1       33.1710   11.4100   25.5060 C.3   147  ILE147      0.0019
     14  CG2       32.3770   11.0610   23.1710 C.3   147  ILE147      0.0020
     15  CD1       33.3280   12.9130   25.4700 C.3   147  ILE147      0.0001
     16  N         34.6750    8.5470   22.3020 N.am  148  LYS148     -0.1980
     17  CA        34.7880    7.9650   20.9640 C.3   148  LYS148      0.1596
     18  C         34.5370    6.4520   20.9810 C.2   148  LYS148      0.2287
     19  O         33.8410    5.9190   20.1140 O.2   148  LYS148     -0.2864
     20  CB        36.1760    8.2600   20.3910 C.3   148  LYS148      0.0298
     21  CG        36.4470    7.7300   18.9750 C.3   148  LYS148      0.0038
     22  CD        37.9250    7.3690   18.8100 C.3   148  LYS148      0.0206
     23  CE        38.2560    6.7670   17.4400 C.3   148  LYS148      0.1093
     24  NZ        38.2320    7.7740   16.3310 N.3   148  LYS148     -0.1314
     25  N         30.7270    5.8710   21.6400 N.3   151  VAL151     -0.1245
     26  CA        29.9790    6.3560   20.4750 C.3   151  VAL151      0.1561
     27  C         30.0930    5.3820   19.2880 C.2   151  VAL151      0.2260
     28  O         29.0920    5.0800   18.6300 O.2   151  VAL151     -0.2867
     29  CB        30.4330    7.7860   20.1010 C.3   151  VAL151      0.0252
     30  CG1       29.9940    8.1610   18.7200 C.3   151  VAL151      0.0019
     31  CG2       29.8870    8.7960   21.1360 C.3   151  VAL151      0.0019
     32  N         27.0140    5.3260   16.6640 N.3   156  HIS156     -0.1241
     33  CA        26.6050    6.7370   16.6320 C.3   156  HIS156      0.1621
     34  C         25.0860    6.9680   16.7990 C.2   156  HIS156      0.2264
     35  O         24.5380    7.9360   16.2760 O.2   156  HIS156     -0.2867
     36  CB        27.1380    7.4050   15.3520 C.3   156  HIS156      0.0745
     37  CG        28.6220    7.2750   15.1780 C.ar  156  HIS156      0.0817
     38  ND1       29.5050    8.2670   15.5490 N.ar  156  HIS156     -0.2268
     39  CD2       29.3770    6.2690   14.6770 C.ar  156  HIS156      0.1154
     40  CE1       30.7390    7.8800   15.2820 C.ar  156  HIS156      0.1986
     41  NE2       30.6910    6.6680   14.7570 N.ar  156  HIS156     -0.2212
     42  N         24.8540   11.1150   19.5120 N.3   159  HIS159     -0.1226
     43  CA        25.8990   12.0160   19.0360 C.3   159  HIS159      0.1752
     44  C         26.3410   12.8810   20.2040 C.2   159  HIS159      0.2596
     45  O         25.5090   13.4350   20.9220 O.2   159  HIS159     -0.2718
     46  CB        25.3770   12.8600   17.8760 C.3   159  HIS159      0.0759
     47  CG        25.0220   12.0500   16.6670 C.ar  159  HIS159      0.0818
     48  ND1       25.9550   11.6770   15.7210 N.ar  159  HIS159     -0.2268
     49  CD2       23.8450   11.5120   16.2670 C.ar  159  HIS159      0.1154
     50  CE1       25.3640   10.9590   14.7830 C.ar  159  HIS159      0.1986
     51  NE2       24.0840   10.8400   15.0930 N.ar  159  HIS159     -0.2212
     52  N         27.6500   12.9770   20.4000 N.am  160  VAL160     -0.1966
     53  CA        28.2090   13.6780   21.5450 C.3   160  VAL160      0.1727
     54  C         29.1760   14.7530   21.0790 C.2   160  VAL160      0.2616
     55  O         29.9930   14.5190   20.1990 O.2   160  VAL160     -0.2715
     56  CB        28.9370   12.7110   22.5060 C.3   160  VAL160      0.0290
     57  CG1       29.3070   13.4200   23.7980 C.3   160  VAL160      0.0023
     58  CG2       28.0700   11.4910   22.8040 C.3   160  VAL160      0.0023
     59  N         29.0510   15.9430   21.6530 N.am  161  ALA161     -0.1963
     60  CA        29.9880   17.0320   21.4150 C.3   161  ALA161      0.1728
     61  C         30.4710   17.5400   22.7590 C.2   161  ALA161      0.2616
     62  O         29.8870   17.2320   23.7920 O.2   161  ALA161     -0.2715
     63  CB        29.3330   18.1500   20.6260 C.3   161  ALA161      0.0334
     64  N         31.5260   18.3390   22.7280 N.am  162  LEU162     -0.1977
     65  CA        32.2710   18.6810   23.9190 C.3   162  LEU162      0.1596
     66  C         32.5050   20.1990   23.9830 C.2   162  LEU162      0.2287
     67  O         32.9050   20.8140   22.9900 O.2   162  LEU162     -0.2864
     68  CB        33.6040   17.9340   23.8750 C.3   162  LEU162      0.0297
     69  CG        34.2590   17.3970   25.1440 C.3   162  LEU162      0.0022
     70  CD1       33.2740   16.6800   26.0790 C.3   162  LEU162      0.0001
     71  CD2       35.3820   16.4660   24.7280 C.3   162  LEU162      0.0001
     72  N         39.2690   21.7080   17.3520 N.3   186  ALA186     -0.1231
     73  CA        38.7690   20.5810   16.5540 C.3   186  ALA186      0.1694
     74  C         37.8220   19.6730   17.3630 C.2   186  ALA186      0.2592
     75  O         36.9050   19.0580   16.8010 O.2   186  ALA186     -0.2718
     76  CB        39.9420   19.7590   15.9950 C.3   186  ALA186      0.0304
     77  N         38.0550   19.6070   18.6750 N.am  187  ASP187     -0.1974
     78  CA        37.2800   18.7610   19.5850 C.3   187  ASP187      0.1709
     79  C         36.2180   19.5250   20.3580 C.2   187  ASP187      0.2293
     80  O         35.2640   18.9270   20.8560 O.2   187  ASP187     -0.2864
     81  CB        38.2190   18.0950   20.5900 C.3   187  ASP187      0.1436
     82  CG        39.1910   17.1450   19.9340 C.2   187  ASP187      0.3671
     83  OD1       38.8390   16.5770   18.8810 O.co2 187  ASP187     -0.2456
     84  OD2       40.3010   16.9570   20.4710 O.co2 187  ASP187     -0.2456
     85  N         25.4870   16.9590   11.0440 N.3   342  ILE342     -0.1245
     86  CA        25.0720   15.9420   12.0140 C.3   342  ILE342      0.1561
     87  C         23.6910   16.2860   12.5580 C.2   342  ILE342      0.2260
     88  O         22.8080   15.4310   12.6380 O.2   342  ILE342     -0.2867
     89  CB        26.0830   15.8170   13.1820 C.3   342  ILE342      0.0252
     90  CG1       27.4330   15.3160   12.6690 C.3   342  ILE342      0.0019
     91  CG2       25.5810   14.8530   14.2370 C.3   342  ILE342      0.0019
     92  CD1       28.5510   15.4770   13.6760 C.3   342  ILE342      0.0001
@<TRIPOS>BOND
     1    85    86    1
     2    86    87    1
     3    86    89    1
     4    87    88    2
     5    90    89    1
     6    90    92    1
     7    89    91    1
     8    39    41   ar
     9    39    37   ar
    10    41    40   ar
    11    50    51   ar
    12    50    48   ar
    13    51    49   ar
    14    37    36    1
    15    37    38   ar
    16    40    38   ar
    17    36    33    1
    18    48    47   ar
    19    76    73    1
    20    49    47   ar
    21    35    34    2
    22    24    23    1
    23    73    72    1
    24    73    74    1
    25    33    32    1
    26    33    34    1
    27    47    46    1
    28    75    74    2
    29    74    77   am
    30    23    22    1
    31    46    43    1
    32    28    27    2
    33    77    78    1
    34    30    29    1
    35    22    21    1
    36    83    82   ar
    37    21    20    1
    38    43    42    1
    39    43    44    1
    40    27    26    1
    41    78    79    1
    42    78    81    1
    43    82    84   ar
    44    82    81    1
    45    29    26    1
    46    29    31    1
    47    19    18    2
    48    55    54    2
    49    44    52   am
    50    44    45    2
    51    79    80    2
    52    20    17    1
    53    52    53    1
    54    26    25    1
    55    63    60    1
    56    17    18    1
    57    17    16    1
    58    54    53    1
    59    54    59   am
    60    60    59    1
    61    60    61    1
    62    53    56    1
    63     6     5    1
    64    16    10   am
    65    56    58    1
    66    56    57    1
    67    11    10    2
    68    64    61   am
    69    64    65    1
    70    61    62    2
    71     4     3    2
    72    67    66    2
    73    10     9    1
    74     5     7    1
    75     5     2    1
    76    14    12    1
    77     3     2    1
    78    68    65    1
    79    68    69    1
    80    65    66    1
    81     2     1    1
    82    12     9    1
    83    12    13    1
    84     9     8    1
    85    71    69    1
    86    69    70    1
    87    15    13    1
