@<TRIPOS>MOLECULE
tmp/2qvnA00.pdb
 183 171 0 0 0
SMALL
GASTEIGER

@<TRIPOS>ATOM
      1  N         27.6480   18.6540   32.9630 N.3    40  HIS40      -0.1241
      2  CA        29.0610   18.6520   33.2960 C.3    40  HIS40       0.1621
      3  C         29.5520   17.2070   33.3640 C.2    40  HIS40       0.2264
      4  O         29.2520   16.4920   34.3180 O.2    40  HIS40      -0.2867
      5  CB        29.3000   19.3500   34.6460 C.3    40  HIS40       0.0745
      6  CG        28.9010   20.7960   34.6670 C.ar   40  HIS40       0.0817
      7  ND1       29.8080   21.8190   34.8540 N.ar   40  HIS40      -0.2268
      8  CD2       27.6920   21.3890   34.5230 C.ar   40  HIS40       0.1154
      9  CE1       29.1730   22.9780   34.8230 C.ar   40  HIS40       0.1986
     10  NE2       27.8880   22.7460   34.6260 N.ar   40  HIS40      -0.2212
     11  N         32.4750   16.0570   33.9750 N.3    42  ASP42      -0.1225
     12  CA        33.3120   15.8400   35.1670 C.3    42  ASP42       0.1805
     13  C         32.5290   15.6320   36.4740 C.2    42  ASP42       0.2597
     14  O         33.1070   15.1940   37.4730 O.2    42  ASP42      -0.2718
     15  CB        34.4120   16.9160   35.3340 C.3    42  ASP42       0.1424
     16  CG        33.9450   18.3430   35.0290 C.2    42  ASP42       0.3668
     17  OD1       32.7240   18.6150   34.9240 O.co2  42  ASP42      -0.2456
     18  OD2       34.8350   19.2110   34.9010 O.co2  42  ASP42      -0.2456
     19  N         31.2280   15.9260   36.4690 N.am   43  LEU43      -0.1979
     20  CA        30.3570   15.6190   37.6070 C.3    43  LEU43       0.1596
     21  C         29.1210   14.8230   37.1800 C.2    43  LEU43       0.2287
     22  O         28.0480   14.8990   37.8020 O.2    43  LEU43      -0.2864
     23  CB        29.9460   16.9050   38.3160 C.3    43  LEU43       0.0297
     24  CG        31.0830   17.7290   38.9270 C.3    43  LEU43       0.0022
     25  CD1       30.5320   19.0500   39.4480 C.3    43  LEU43       0.0001
     26  CD2       31.8000   16.9590   40.0380 C.3    43  LEU43       0.0001
     27  N         24.8170   28.0470   45.8190 N.3    81  LEU81      -0.1245
     28  CA        25.8010   27.7230   44.7910 C.3    81  LEU81       0.1561
     29  C         27.2000   27.6270   45.4090 C.2    81  LEU81       0.2260
     30  O         27.9840   26.7470   45.0580 O.2    81  LEU81      -0.2867
     31  CB        25.7630   28.7850   43.6790 C.3    81  LEU81       0.0270
     32  CG        26.8210   28.7540   42.5680 C.3    81  LEU81       0.0019
     33  CD1       26.8630   27.3810   41.9020 C.3    81  LEU81       0.0001
     34  CD2       26.5730   29.8770   41.5370 C.3    81  LEU81       0.0001
     35  N         27.6200   24.2360   46.9770 N.3    84  PHE84      -0.1227
     36  CA        27.7930   23.2600   45.9060 C.3    84  PHE84       0.1736
     37  C         29.2410   23.2160   45.3940 C.2    84  PHE84       0.2595
     38  O         29.8190   22.1380   45.2220 O.2    84  PHE84      -0.2718
     39  CB        26.8370   23.5840   44.7520 C.3    84  PHE84       0.0547
     40  CG        27.0200   22.7070   43.5440 C.ar   84  PHE84      -0.0202
     41  CD1       26.3460   21.5000   43.4360 C.ar   84  PHE84      -0.0042
     42  CD2       27.8700   23.0930   42.5160 C.ar   84  PHE84      -0.0042
     43  CE1       26.5170   20.6900   42.3250 C.ar   84  PHE84      -0.0003
     44  CE2       28.0540   22.2880   41.4010 C.ar   84  PHE84      -0.0003
     45  CZ        27.3760   21.0870   41.3020 C.ar   84  PHE84      -0.0000
     46  N         29.8140   24.3960   45.1700 N.am   85  VAL85      -0.1980
     47  CA        31.1570   24.5320   44.6080 C.3    85  VAL85       0.1595
     48  C         32.2110   23.9330   45.5310 C.2    85  VAL85       0.2287
     49  O         33.1510   23.3030   45.0590 O.2    85  VAL85      -0.2864
     50  CB        31.4940   26.0140   44.2880 C.3    85  VAL85       0.0276
     51  CG1       32.9600   26.1750   43.8870 C.3    85  VAL85       0.0022
     52  CG2       30.5800   26.5410   43.1820 C.3    85  VAL85       0.0022
     53  N         31.7730   20.0570   45.3710 N.3    88  ALA88      -0.1245
     54  CA        32.3260   19.5590   44.1070 C.3    88  ALA88       0.1562
     55  C         33.8430   19.3860   44.1550 C.2    88  ALA88       0.2260
     56  O         34.3820   18.4640   43.5480 O.2    88  ALA88      -0.2867
     57  CB        31.9450   20.4960   42.9540 C.3    88  ALA88       0.0290
     58  N         35.7360   20.9650   32.7820 N.3   124  SER124     -0.1217
     59  CA        36.7680   21.9190   33.1450 C.3   124  SER124      0.1889
     60  C         38.1280   21.2230   33.2940 C.2   124  SER124      0.2288
     61  O         38.3470   20.4700   34.2450 O.2   124  SER124     -0.2866
     62  CB        36.3840   22.6230   34.4350 C.3   124  SER124      0.2089
     63  OG        37.4470   23.4340   34.8900 O.3   124  SER124     -0.2183
     64  N         39.6720   22.0600   36.6400 N.3   127  PHE127     -0.1241
     65  CA        38.9360   21.4140   37.7190 C.3   127  PHE127      0.1605
     66  C         39.2830   19.9340   37.8800 C.2   127  PHE127      0.2264
     67  O         39.3650   19.4230   38.9950 O.2   127  PHE127     -0.2867
     68  CB        37.4380   21.5380   37.4790 C.3   127  PHE127      0.0534
     69  CG        36.6100   20.8000   38.4840 C.ar  127  PHE127     -0.0203
     70  CD1       36.4450   21.3060   39.7710 C.ar  127  PHE127     -0.0042
     71  CD2       36.0090   19.5910   38.1550 C.ar  127  PHE127     -0.0042
     72  CE1       35.6860   20.6270   40.7050 C.ar  127  PHE127     -0.0003
     73  CE2       35.2480   18.9030   39.0890 C.ar  127  PHE127     -0.0003
     74  CZ        35.0890   19.4170   40.3660 C.ar  127  PHE127     -0.0000
     75  N         35.1090   24.3270   29.7790 N.3   164  ILE164     -0.1245
     76  CA        34.7430   25.2980   30.8200 C.3   164  ILE164      0.1561
     77  C         35.9810   25.9460   31.4160 C.2   164  ILE164      0.2260
     78  O         36.8910   25.2500   31.8560 O.2   164  ILE164     -0.2867
     79  CB        33.9900   24.6290   31.9920 C.3   164  ILE164      0.0252
     80  CG1       32.7900   23.8160   31.4890 C.3   164  ILE164      0.0019
     81  CG2       33.5610   25.6850   33.0360 C.3   164  ILE164      0.0019
     82  CD1       32.0870   23.0310   32.6160 C.3   164  ILE164      0.0001
     83  N         36.6350   28.0610   34.6940 N.3   166  ASP166     -0.1225
     84  CA        35.8190   28.1970   35.9020 C.3   166  ASP166      0.1805
     85  C         36.5200   28.9170   37.0500 C.2   166  ASP166      0.2598
     86  O         37.7430   29.0920   37.0520 O.2   166  ASP166     -0.2718
     87  CB        35.2840   26.8250   36.3520 C.3   166  ASP166      0.1424
     88  CG        36.3840   25.7910   36.5780 C.2   166  ASP166      0.3668
     89  OD1       37.5740   26.0830   36.3360 O.co2 166  ASP166     -0.2456
     90  OD2       36.0480   24.6650   36.9970 O.co2 166  ASP166     -0.2456
     91  N         35.7050   29.3380   38.0120 N.am  167  THR167     -0.1953
     92  CA        36.1550   30.0510   39.2000 C.3   167  THR167      0.1897
     93  C         35.6760   29.2990   40.4500 C.2   167  THR167      0.2313
     94  O         34.5610   28.7690   40.4700 O.2   167  THR167     -0.2863
     95  CB        35.5750   31.4850   39.2210 C.3   167  THR167      0.1794
     96  OG1       35.8810   32.1530   37.9870 O.3   167  THR167     -0.2208
     97  CG2       36.1290   32.2800   40.3910 C.3   167  THR167      0.0378
     98  N         37.9420   27.0580   42.4800 N.3   169  HIS169     -0.1241
     99  CA        38.8210   25.9670   42.8960 C.3   169  HIS169      0.1621
    100  C         40.2970   26.3270   42.7040 C.2   169  HIS169      0.2264
    101  O         40.6330   27.2550   41.9470 O.2   169  HIS169     -0.2867
    102  CB        38.4860   24.6760   42.1270 C.3   169  HIS169      0.0745
    103  CG        38.7950   24.7430   40.6630 C.ar  169  HIS169      0.0817
    104  ND1       40.0410   24.4530   40.1530 N.ar  169  HIS169     -0.2268
    105  CD2       38.0200   25.0680   39.5990 C.ar  169  HIS169      0.1154
    106  CE1       40.0270   24.6090   38.8420 C.ar  169  HIS169      0.1986
    107  NE2       38.8100   24.9730   38.4790 N.ar  169  HIS169     -0.2212
    108  N         31.8210   28.6320   34.4410 N.3   194  GLY194     -0.1210
    109  CA        30.9900   28.1490   35.5300 C.3   194  GLY194      0.1956
    110  C         31.7130   28.2940   36.8510 C.2   194  GLY194      0.2612
    111  O         32.6990   29.0310   36.9540 O.2   194  GLY194     -0.2717
    112  N         31.2340   27.5710   37.8570 N.am  195  GLY195     -0.1956
    113  CA        31.7100   27.7460   39.2300 C.3   195  GLY195      0.1869
    114  C         31.0270   28.9480   39.8600 C.2   195  GLY195      0.2309
    115  O         29.8370   29.1520   39.6490 O.2   195  GLY195     -0.2863
    116  N         29.5640   32.4920   40.2090 N.3   197  GLU197     -0.1245
    117  CA        29.0240   33.3930   39.1880 C.3   197  GLU197      0.1567
    118  C         29.6590   34.7720   39.3180 C.2   197  GLU197      0.2260
    119  O         29.3670   35.5120   40.2540 O.2   197  GLU197     -0.2867
    120  CB        27.4950   33.5050   39.2750 C.3   197  GLU197      0.0388
    121  CG        26.8740   34.1730   38.0430 C.3   197  GLU197      0.1160
    122  CD        25.3540   34.1700   38.0480 C.2   197  GLU197      0.3649
    123  OE1       24.7370   33.1030   38.2730 O.co2 197  GLU197     -0.2457
    124  OE2       24.7720   35.2430   37.7950 O.co2 197  GLU197     -0.2457
    125  N         27.5560   30.4320   32.2770 N.3   220  HIS220     -0.1241
    126  CA        26.6560   30.4650   33.4260 C.3   220  HIS220      0.1621
    127  C         26.4000   31.9190   33.7990 C.2   220  HIS220      0.2264
    128  O         27.3440   32.6750   34.0550 O.2   220  HIS220     -0.2867
    129  CB        27.2660   29.7660   34.6430 C.3   220  HIS220      0.0745
    130  CG        27.4460   28.2860   34.4900 C.ar  220  HIS220      0.0817
    131  ND1       28.1570   27.7150   33.4560 N.ar  220  HIS220     -0.2268
    132  CD2       27.0510   27.2640   35.2850 C.ar  220  HIS220      0.1154
    133  CE1       28.1670   26.4020   33.6060 C.ar  220  HIS220      0.1986
    134  NE2       27.5050   26.1040   34.7080 N.ar  220  HIS220     -0.2212
    135  N         21.9440   32.5980   37.4740 N.3   223  GLU223     -0.1245
    136  CA        21.6450   31.4050   38.2660 C.3   223  GLU223      0.1567
    137  C         21.5670   31.7600   39.7380 C.2   223  GLU223      0.2260
    138  O         20.6020   31.4090   40.4070 O.2   223  GLU223     -0.2867
    139  CB        22.7330   30.3430   38.0890 C.3   223  GLU223      0.0388
    140  CG        22.5800   29.1440   39.0380 C.3   223  GLU223      0.1160
    141  CD        23.7620   28.1950   39.0140 C.2   223  GLU223      0.3649
    142  OE1       24.8200   28.5510   38.4560 O.co2 223  GLU223     -0.2457
    143  OE2       23.6320   27.0860   39.5750 O.co2 223  GLU223     -0.2457
    144  N         21.7650   28.1350   32.7480 N.3   247  HIS247     -0.1241
    145  CA        20.7000   28.5380   33.6820 C.3   247  HIS247      0.1621
    146  C         19.9080   29.7420   33.1630 C.2   247  HIS247      0.2264
    147  O         18.9050   29.5580   32.4810 O.2   247  HIS247     -0.2867
    148  CB        21.2390   28.7690   35.0990 C.3   247  HIS247      0.0745
    149  CG        21.9620   27.5860   35.6560 C.ar  247  HIS247      0.0817
    150  ND1       21.3140   26.5550   36.2940 N.ar  247  HIS247     -0.2268
    151  CD2       23.2760   27.2580   35.6480 C.ar  247  HIS247      0.1154
    152  CE1       22.1960   25.6450   36.6660 C.ar  247  HIS247      0.1986
    153  NE2       23.3950   26.0480   36.2880 N.ar  247  HIS247     -0.2212
    154  N         18.7710   21.1590   39.7150 N.3   273  SER273     -0.1217
    155  CA        19.9270   21.8930   40.2250 C.3   273  SER273      0.1889
    156  C         19.4940   23.1660   40.9530 C.2   273  SER273      0.2288
    157  O         19.9560   23.4390   42.0620 O.2   273  SER273     -0.2866
    158  CB        20.9010   22.2520   39.1040 C.3   273  SER273      0.2089
    159  OG        21.9170   23.1250   39.5850 O.3   273  SER273     -0.2183
    160  N         19.9740   23.7770   45.0010 N.3   277  LEU277     -0.1245
    161  CA        20.9040   24.8480   45.3560 C.3   277  LEU277      0.1561
    162  C         20.1950   26.0890   45.9020 C.2   277  LEU277      0.2260
    163  O         20.8430   27.0750   46.2200 O.2   277  LEU277     -0.2867
    164  CB        21.7540   25.2250   44.1410 C.3   277  LEU277      0.0270
    165  CG        22.9870   24.3530   43.9320 C.3   277  LEU277      0.0019
    166  CD1       22.5900   22.9060   43.6600 C.3   277  LEU277      0.0001
    167  CD2       23.8440   24.9280   42.8090 C.3   277  LEU277      0.0001
    168  N         22.4960   18.9960   34.3020 N.3   302  ASP302     -0.1225
    169  CA        23.5630   19.7340   34.9730 C.3   302  ASP302      0.1805
    170  C         24.6540   18.8060   35.5280 C.2   302  ASP302      0.2597
    171  O         25.7080   18.6790   34.9140 O.2   302  ASP302     -0.2718
    172  CB        22.9800   20.6600   36.0570 C.3   302  ASP302      0.1424
    173  CG        23.9520   21.7170   36.5160 C.2   302  ASP302      0.3668
    174  OD1       24.9940   21.9030   35.8690 O.co2 302  ASP302     -0.2456
    175  OD2       23.6670   22.3790   37.5350 O.co2 302  ASP302     -0.2456
    176  N         24.3890   18.1570   36.6680 N.am  303  ASP303     -0.1974
    177  CA        25.3680   17.3260   37.3750 C.3   303  ASP303      0.1709
    178  C         24.7000   16.0780   37.9450 C.2   303  ASP303      0.2293
    179  O         24.4730   16.0030   39.1550 O.2   303  ASP303     -0.2864
    180  CB        25.9820   18.0850   38.5480 C.3   303  ASP303      0.1436
    181  CG        26.6080   19.3920   38.1440 C.2   303  ASP303      0.3671
    182  OD1       27.7160   19.3740   37.5790 O.co2 303  ASP303     -0.2456
    183  OD2       25.9970   20.4390   38.4230 O.co2 303  ASP303     -0.2456
@<TRIPOS>BOND
     1    75    76    1
     2    76    77    1
     3    76    79    1
     4    77    78    2
     5    80    79    1
     6    80    82    1
     7    79    81    1
     8   125   126    1
     9   147   146    2
    10   144   145    1
    11    58    59    1
    12     1     2    1
    13    59    60    1
    14    59    62    1
    15   146   145    1
    16    60    61    2
    17     2     3    1
    18     2     5    1
    19     3     4    2
    20   126   127    1
    21   126   129    1
    22   131   133   ar
    23   131   130   ar
    24   133   134   ar
    25   145   148    1
    26   127   128    2
    27    11    12    1
    28   168   169    1
    29    62    63    1
    30   108   109    1
    31   130   129    1
    32   130   132   ar
    33     8    10   ar
    34     8     6   ar
    35    10     9   ar
    36     5     6    1
    37     6     7   ar
    38    83    84    1
    39   134   132   ar
    40     9     7   ar
    41    18    16   ar
    42   171   170    2
    43    17    16   ar
    44   169   170    1
    45   169   172    1
    46    16    15    1
    47   148   149    1
    48    12    15    1
    49    12    13    1
    50   170   176   am
    51   109   110    1
    52   151   149   ar
    53   151   153   ar
    54   149   150   ar
    55   174   173   ar
    56    84    87    1
    57    84    85    1
    58   172   173    1
    59   153   152   ar
    60   150   152   ar
    61    89    88   ar
    62    87    88    1
    63    19    13   am
    64    19    20    1
    65    13    14    2
    66   173   175   ar
    67    88    90   ar
    68    64    65    1
    69   176   177    1
    70   110   111    2
    71   110   112   am
    72    85    86    2
    73    85    91   am
    74    21    20    1
    75    21    22    2
    76   177   178    1
    77   177   180    1
    78   135   136    1
    79    68    65    1
    80    68    69    1
    81   182   181   ar
    82    20    23    1
    83    65    66    1
    84   124   122   ar
    85   112   113    1
    86    66    67    2
    87   178   179    2
    88    96    95    1
    89    91    92    1
    90   121   122    1
    91   121   120    1
    92   122   123   ar
    93   139   136    1
    94   139   140    1
    95   181   183   ar
    96   181   180    1
    97    71    69   ar
    98    71    73   ar
    99   136   137    1
   100    23    24    1
   101   142   141   ar
   102   107   106   ar
   103   107   105   ar
   104    69    70   ar
   105   106   104   ar
   106    24    25    1
   107    24    26    1
   108   141   140    1
   109   141   143   ar
   110    73    74   ar
   111   158   159    1
   112   158   155    1
   113   117   120    1
   114   117   118    1
   115   117   116    1
   116    92    95    1
   117    92    93    1
   118    95    97    1
   119   113   114    1
   120   118   119    2
   121   105   103   ar
   122   115   114    2
   123   154   155    1
   124   137   138    2
   125    70    72   ar
   126   104   103   ar
   127   155   156    1
   128    74    72   ar
   129    93    94    2
   130   103   102    1
   131   156   157    2
   132    45    44   ar
   133    45    43   ar
   134    44    42   ar
   135    34    32    1
   136    33    32    1
   137   101   100    2
   138   102    99    1
   139    43    41   ar
   140    98    99    1
   141    42    40   ar
   142    32    31    1
   143   100    99    1
   144   167   165    1
   145    57    54    1
   146    52    50    1
   147    41    40   ar
   148    40    39    1
   149    56    55    2
   150   166   165    1
   151    31    28    1
   152    51    50    1
   153   165   164    1
   154    54    55    1
   155    54    53    1
   156   164   161    1
   157    50    47    1
   158    47    46    1
   159    47    48    1
   160    39    36    1
   161    28    29    1
   162    28    27    1
   163   160   161    1
   164    30    29    2
   165    49    48    2
   166    46    37   am
   167    38    37    2
   168   161   162    1
   169    37    36    1
   170   162   163    2
   171    36    35    1
