@<TRIPOS>MOLECULE
tmp/2qvrA00.pdb
 165 156 0 0 0
SMALL
GASTEIGER

@<TRIPOS>ATOM
      1  N         20.1760   10.3480   27.4610 N.3    59  GLU59      -0.1245
      2  CA        19.5360    9.0620   27.1890 C.3    59  GLU59       0.1567
      3  C         20.1830    8.2970   26.0310 C.2    59  GLU59       0.2260
      4  O         20.7950    8.8910   25.1410 O.2    59  GLU59      -0.2867
      5  CB        18.0500    9.2790   26.8760 C.3    59  GLU59       0.0388
      6  CG        17.2270    9.8310   28.0320 C.3    59  GLU59       0.1160
      7  CD        15.8080   10.1950   27.6220 C.2    59  GLU59       0.3649
      8  OE1       14.9960   10.5220   28.5120 O.co2  59  GLU59      -0.2457
      9  OE2       15.5060   10.1600   26.4100 O.co2  59  GLU59      -0.2457
     10  N         14.0640   17.6090   20.7610 N.3    88  GLU88      -0.1245
     11  CA        14.4480   16.8560   21.9470 C.3    88  GLU88       0.1567
     12  C         15.7240   16.0330   21.7190 C.2    88  GLU88       0.2260
     13  O         16.3760   15.5950   22.6760 O.2    88  GLU88      -0.2867
     14  CB        13.2990   15.9370   22.3580 C.3    88  GLU88       0.0388
     15  CG        13.6100   15.0670   23.5510 C.3    88  GLU88       0.1160
     16  CD        12.3950   14.3120   24.0440 C.2    88  GLU88       0.3649
     17  OE1       12.5400   13.1170   24.3790 O.co2  88  GLU88      -0.2457
     18  OE2       11.2980   14.9170   24.1020 O.co2  88  GLU88      -0.2457
     19  N          9.3580   16.7400   19.2620 N.3   108  ASP108     -0.1239
     20  CA         9.7400   15.5000   19.9110 C.3   108  ASP108      0.1674
     21  C          9.4980   14.5720   18.7120 C.2   108  ASP108      0.2266
     22  O          8.3920   14.0630   18.5260 O.2   108  ASP108     -0.2867
     23  CB         8.7780   15.1590   21.0490 C.3   108  ASP108      0.1410
     24  CG         9.1750   13.8880   21.7840 C.2   108  ASP108      0.3668
     25  OD1        8.3440   13.3520   22.5500 O.co2 108  ASP108     -0.2456
     26  OD2       10.3210   13.4320   21.6010 O.co2 108  ASP108     -0.2456
     27  N         10.3620   11.4900   17.9460 N.3   110  LEU110     -0.1231
     28  CA         9.8980   10.1430   18.1800 C.3   110  LEU110      0.1693
     29  C          9.6280    9.9160   19.6490 C.2   110  LEU110      0.2592
     30  O         10.5410    9.6340   20.4240 O.2   110  LEU110     -0.2718
     31  CB        10.9200    9.1280   17.6850 C.3   110  LEU110      0.0284
     32  CG        10.3280    7.7270   17.5590 C.3   110  LEU110      0.0019
     33  CD1        9.3430    7.6930   16.3850 C.3   110  LEU110      0.0001
     34  CD2       11.4480    6.7280   17.3440 C.3   110  LEU110      0.0001
     35  N          8.3610   10.0510   20.0200 N.am  111  ASP111     -0.1960
     36  CA         7.9360    9.8560   21.3970 C.3   111  ASP111      0.1840
     37  C          7.6510    8.3800   21.6250 C.2   111  ASP111      0.2623
     38  O          6.9790    7.7470   20.8070 O.2   111  ASP111     -0.2715
     39  CB         6.6650   10.6570   21.6670 C.3   111  ASP111      0.1450
     40  CG         6.0830   10.3750   23.0310 C.2   111  ASP111      0.3671
     41  OD1        6.6920   10.8100   24.0310 O.co2 111  ASP111     -0.2456
     42  OD2        5.0220    9.7150   23.1020 O.co2 111  ASP111     -0.2456
     43  N          8.1530    7.8430   22.7370 N.am  112  GLY112     -0.1940
     44  CA         7.9260    6.4430   23.0630 C.3   112  GLY112      0.2014
     45  C          9.0360    5.5400   22.5610 C.2   112  GLY112      0.2640
     46  O          8.7820    4.4210   22.1200 O.2   112  GLY112     -0.2714
     47  N         10.2700    6.0280   22.6440 N.am  113  SER113     -0.1935
     48  CA        11.4400    5.2880   22.1810 C.3   113  SER113      0.2055
     49  C         11.4960    3.8370   22.6630 C.2   113  SER113      0.2643
     50  O         11.9350    2.9540   21.9240 O.2   113  SER113     -0.2714
     51  CB        12.7200    6.0130   22.6090 C.3   113  SER113      0.2130
     52  OG        12.8750    5.9620   24.0200 O.3   113  SER113     -0.2179
     53  N         11.0540    3.5880   23.8930 N.am  114  SER114     -0.1949
     54  CA        11.0740    2.2300   24.4450 C.3   114  SER114      0.1924
     55  C         10.1420    1.2570   23.7160 C.2   114  SER114      0.2314
     56  O         10.2940    0.0420   23.8390 O.2   114  SER114     -0.2863
     57  CB        10.7040    2.2460   25.9370 C.3   114  SER114      0.2116
     58  OG         9.3250    2.5430   26.1430 O.3   114  SER114     -0.2180
     59  N          3.2800    5.0680   35.4850 N.3   202  ASN202     -0.1240
     60  CA         4.2080    3.9480   35.6300 C.3   202  ASN202      0.1653
     61  C          4.2620    3.6160   37.1220 C.2   202  ASN202      0.2266
     62  O          5.1170    4.1170   37.8480 O.2   202  ASN202     -0.2867
     63  CB         5.6040    4.3290   35.1400 C.3   202  ASN202      0.1155
     64  CG         6.5770    3.1630   35.1930 C.2   202  ASN202      0.2627
     65  OD1        6.4670    2.2810   36.0490 O.2   202  ASN202     -0.2716
     66  ND2        7.5470    3.1610   34.2880 N.am  202  ASN202     -0.0877
     67  N          7.2880    2.9850   39.6810 N.3   205  ASN205     -0.1240
     68  CA         8.0140    4.0430   40.3910 C.3   205  ASN205      0.1653
     69  C          7.2290    4.5580   41.5950 C.2   205  ASN205      0.2266
     70  O          7.4380    5.6890   42.0370 O.2   205  ASN205     -0.2867
     71  CB         8.2810    5.2320   39.4620 C.3   205  ASN205      0.1155
     72  CG         9.1190    4.8680   38.2690 C.2   205  ASN205      0.2627
     73  OD1       10.0470    4.0680   38.3680 O.2   205  ASN205     -0.2716
     74  ND2        8.8160    5.4720   37.1320 N.am  205  ASN205     -0.0877
     75  N         -1.3440    1.8430   30.7000 N.3   235  TYR235     -0.1241
     76  CA        -0.0940    2.5590   30.5280 C.3   235  TYR235      0.1605
     77  C          0.6890    1.8690   29.4160 C.2   235  TYR235      0.2264
     78  O          1.3410    0.8370   29.6310 O.2   235  TYR235     -0.2867
     79  CB         0.6840    2.5560   31.8440 C.3   235  TYR235      0.0534
     80  CG         1.8610    3.4970   31.8780 C.ar  235  TYR235     -0.0201
     81  CD1        1.6740    4.8800   31.8940 C.ar  235  TYR235     -0.0009
     82  CD2        3.1630    3.0080   31.9130 C.ar  235  TYR235     -0.0009
     83  CE1        2.7520    5.7500   31.9490 C.ar  235  TYR235      0.0417
     84  CE2        4.2530    3.8720   31.9670 C.ar  235  TYR235      0.0417
     85  CZ         4.0380    5.2420   31.9890 C.ar  235  TYR235      0.1957
     86  OH         5.1060    6.0940   32.0890 O.3   235  TYR235     -0.2866
     87  N          3.1740    3.2840   27.6990 N.3   237  GLY237     -0.1210
     88  CA         4.5940    3.6030   27.7480 C.3   237  GLY237      0.1956
     89  C          4.9640    4.6360   26.7020 C.2   237  GLY237      0.2613
     90  O          6.1200    5.0170   26.5580 O.2   237  GLY237     -0.2717
     91  N          3.9660    5.0700   25.9460 N.am  238  SER238     -0.1938
     92  CA         4.1640    6.0860   24.9330 C.3   238  SER238      0.2055
     93  C          3.2060    7.2160   25.2710 C.2   238  SER238      0.2642
     94  O          1.9890    7.0180   25.3010 O.2   238  SER238     -0.2714
     95  CB         3.8520    5.5230   23.5500 C.3   238  SER238      0.2130
     96  OG         3.9320    6.5470   22.5730 O.3   238  SER238     -0.2179
     97  N          3.7510    8.3990   25.5360 N.am  239  LEU239     -0.1977
     98  CA         2.9280    9.5530   25.8890 C.3   239  LEU239      0.1596
     99  C          1.8120    9.8310   24.8830 C.2   239  LEU239      0.2287
    100  O          0.6400    9.9200   25.2480 O.2   239  LEU239     -0.2864
    101  CB         3.8040   10.8000   26.0400 C.3   239  LEU239      0.0297
    102  CG         3.0670   12.1440   26.1350 C.3   239  LEU239      0.0022
    103  CD1        1.9810   12.1080   27.2100 C.3   239  LEU239      0.0001
    104  CD2        4.0860   13.2220   26.4480 C.3   239  LEU239      0.0001
    105  N         -3.2600   11.0790   32.4390 N.3   253  TYR253     -0.1241
    106  CA        -1.8970   10.6120   32.2480 C.3   253  TYR253      0.1605
    107  C         -1.0460   11.2930   33.3070 C.2   253  TYR253      0.2264
    108  O         -1.0930   12.5140   33.4550 O.2   253  TYR253     -0.2867
    109  CB        -1.3800   10.9900   30.8580 C.3   253  TYR253      0.0534
    110  CG         0.1040   10.7660   30.6930 C.ar  253  TYR253     -0.0201
    111  CD1        1.0280   11.7400   31.0760 C.ar  253  TYR253     -0.0009
    112  CD2        0.5890    9.5550   30.2020 C.ar  253  TYR253     -0.0009
    113  CE1        2.3980   11.5080   30.9740 C.ar  253  TYR253      0.0417
    114  CE2        1.9550    9.3150   30.0940 C.ar  253  TYR253      0.0417
    115  CZ         2.8540   10.2890   30.4760 C.ar  253  TYR253      0.1957
    116  OH         4.2060   10.0560   30.3160 O.3   253  TYR253     -0.2866
    117  N          2.8970   11.7320   35.1000 N.3   255  TYR255     -0.1241
    118  CA         4.3340   11.4880   35.1450 C.3   255  TYR255      0.1605
    119  C          4.9220   12.5150   36.0980 C.2   255  TYR255      0.2264
    120  O          5.3780   13.5890   35.6890 O.2   255  TYR255     -0.2867
    121  CB         5.0310   11.5840   33.7860 C.3   255  TYR255      0.0534
    122  CG         6.3270   10.7960   33.8290 C.ar  255  TYR255     -0.0201
    123  CD1        7.2190   10.9470   34.9010 C.ar  255  TYR255     -0.0009
    124  CD2        6.6040    9.8130   32.8800 C.ar  255  TYR255     -0.0009
    125  CE1        8.3380   10.1330   35.0320 C.ar  255  TYR255      0.0417
    126  CE2        7.7200    8.9930   32.9990 C.ar  255  TYR255      0.0417
    127  CZ         8.5790    9.1530   34.0790 C.ar  255  TYR255      0.1957
    128  OH         9.6500    8.3050   34.2260 O.3   255  TYR255     -0.2866
    129  N          9.9570   13.5960   34.3020 N.3   265  LYS265     -0.1231
    130  CA        10.7890   13.1520   33.1950 C.3   265  LYS265      0.1693
    131  C         10.5310   13.8970   31.8880 C.2   265  LYS265      0.2592
    132  O         11.4690   14.1820   31.1440 O.2   265  LYS265     -0.2718
    133  CB        10.6050   11.6510   32.9500 C.3   265  LYS265      0.0285
    134  CG        11.2800   11.1570   31.6770 C.3   265  LYS265      0.0035
    135  CD        11.0020    9.6760   31.4350 C.3   265  LYS265      0.0206
    136  CE        11.5990    9.2150   30.1170 C.3   265  LYS265      0.1093
    137  NZ        11.2840    7.7850   29.8210 N.3   265  LYS265     -0.1314
    138  N          9.2650   14.2100   31.6120 N.am  266  LEU266     -0.1966
    139  CA         8.8960   14.8930   30.3700 C.3   266  LEU266      0.1728
    140  C          9.5000   16.2910   30.2660 C.2   266  LEU266      0.2616
    141  O          9.7650   16.9290   31.2850 O.2   266  LEU266     -0.2715
    142  CB         7.3680   14.9830   30.2580 C.3   266  LEU266      0.0311
    143  CG         6.5700   13.6960   30.5050 C.3   266  LEU266      0.0022
    144  CD1        5.0920   13.9300   30.1760 C.3   266  LEU266      0.0001
    145  CD2        7.1250   12.5710   29.6380 C.3   266  LEU266      0.0001
    146  N          9.7090   16.7650   29.0370 N.am  267  ARG267     -0.1977
    147  CA        10.2750   18.0920   28.8100 C.3   267  ARG267      0.1597
    148  C          9.1580   19.1030   28.5860 C.2   267  ARG267      0.2287
    149  O          8.2070   18.8510   27.8380 O.2   267  ARG267     -0.2864
    150  CB        11.2200   18.0960   27.6010 C.3   267  ARG267      0.0334
    151  CG        12.4260   17.1790   27.7480 C.3   267  ARG267      0.0492
    152  CD        11.9550   15.7500   27.7950 C.3   267  ARG267      0.2205
    153  NE        13.0480   14.7940   27.8320 N.pl3 267  ARG267     -0.0865
    154  CZ        12.8790   13.4780   27.8080 C.cat 267  ARG267      0.5346
    155  NH1       11.6560   12.9620   27.7470 N.pl3 267  ARG267      0.1354
    156  NH2       13.9350   12.6800   27.8450 N.pl3 267  ARG267      0.1354
    157  N          7.2870   18.3790   24.9570 N.3   271  GLU271     -0.1245
    158  CA         6.2580   17.4180   25.3060 C.3   271  GLU271      0.1567
    159  C          5.0790   17.9980   26.0900 C.2   271  GLU271      0.2260
    160  O          3.9240   17.8160   25.6980 O.2   271  GLU271     -0.2867
    161  CB         6.9000   16.2610   26.0930 C.3   271  GLU271      0.0388
    162  CG         7.7530   15.3230   25.2280 C.3   271  GLU271      0.1160
    163  CD         8.7010   14.4480   26.0320 C.2   271  GLU271      0.3649
    164  OE1        9.1680   13.4230   25.4950 O.co2 271  GLU271     -0.2457
    165  OE2        8.9960   14.7840   27.1940 O.co2 271  GLU271     -0.2457
@<TRIPOS>BOND
     1    33    32    1
     2    34    32    1
     3    32    31    1
     4    31    28    1
     5    27    28    1
     6    28    29    1
     7    22    21    2
     8    21    20    1
     9    19    20    1
    10    29    35   am
    11    29    30    2
    12    20    23    1
    13    35    36    1
    14    10    11    1
    15    38    37    2
    16    23    24    1
    17    36    37    1
    18    36    39    1
    19    26    24   ar
    20    37    43   am
    21    39    40    1
    22    12    11    1
    23    12    13    2
    24    24    25   ar
    25    50    49    2
    26    11    14    1
    27    46    45    2
    28    48    51    1
    29    48    47    1
    30    48    49    1
    31    14    15    1
    32    45    47   am
    33    45    44    1
    34    96    95    1
    35    51    52    1
    36    49    53   am
    37    43    44    1
    38    40    42   ar
    39    40    41   ar
    40    95    92    1
    41    15    16    1
    42    55    56    2
    43    55    54    1
    44    53    54    1
    45    16    18   ar
    46    16    17   ar
    47    54    57    1
    48    99   100    2
    49    99    98    1
    50    92    93    1
    51    92    91    1
    52   157   158    1
    53     4     3    2
    54   162   163    1
    55   162   161    1
    56    93    94    2
    57    93    97   am
    58   158   159    1
    59   158   161    1
    60   164   163   ar
    61    97    98    1
    62   160   159    2
    63    98   101    1
    64    57    58    1
    65    91    89   am
    66     3     2    1
    67   163   165   ar
    68   101   102    1
    69   102   104    1
    70   102   103    1
    71     9     7   ar
    72    90    89    2
    73    89    88    1
    74     5     2    1
    75     5     6    1
    76     2     1    1
    77   150   151    1
    78   150   147    1
    79     7     6    1
    80     7     8   ar
    81    87    88    1
    82   155   154    1
    83   151   152    1
    84   152   153    1
    85   154   153    2
    86   154   156    1
    87   149   148    2
    88   148   147    1
    89   147   146    1
    90   146   140   am
    91    77    78    2
    92    77    76    1
    93   145   143    1
    94   137   136    1
    95   114   112   ar
    96   114   115   ar
    97   136   135    1
    98   144   143    1
    99   112   110   ar
   100   142   139    1
   101   142   143    1
   102   140   139    1
   103   140   141    2
   104   116   115    1
   105   139   138    1
   106   115   113   ar
   107    76    75    1
   108    76    79    1
   109   110   109    1
   110   110   111   ar
   111   109   106    1
   112   113   111   ar
   113   132   131    2
   114   135   134    1
   115   138   131   am
   116   134   133    1
   117    79    80    1
   118    80    81   ar
   119    80    82   ar
   120   131   130    1
   121    81    83   ar
   122    82    84   ar
   123    83    85   ar
   124    84    85   ar
   125    85    86    1
   126   106   105    1
   127   106   107    1
   128   124   126   ar
   129   124   122   ar
   130   133   130    1
   131   126   127   ar
   132   130   129    1
   133   107   108    2
   134   121   122    1
   135   121   118    1
   136   122   123   ar
   137   127   128    1
   138   127   125   ar
   139    66    64   am
   140   123   125   ar
   141   117   118    1
   142    63    64    1
   143    63    60    1
   144   118   119    1
   145    64    65    2
   146    59    60    1
   147    60    61    1
   148   120   119    2
   149    61    62    2
   150    74    72   am
   151    72    73    2
   152    72    71    1
   153    71    68    1
   154    67    68    1
   155    68    69    1
   156    69    70    2
