@<TRIPOS>MOLECULE
tmp/2qvrA01.pdb
 75 71 0 0 0
SMALL
GASTEIGER

@<TRIPOS>ATOM
      1  N        -10.0120   15.7050    3.0280 N.3     2  THR2       -0.1203
      2  CA        -8.6110   15.5620    3.4100 C.3     2  THR2        0.1994
      3  C         -8.1650   16.6520    4.3670 C.2     2  THR2        0.2618
      4  O         -8.8480   17.6620    4.5450 O.2     2  THR2       -0.2717
      5  CB        -7.6730   15.6340    2.2020 C.3     2  THR2        0.1784
      6  OG1       -7.5980   16.9940    1.7550 O.3     2  THR2       -0.2211
      7  CG2       -8.1770   14.7430    1.0710 C.3     2  THR2        0.0376
      8  N         -7.0030   16.4370    4.9740 N.am    3  LEU3       -0.1965
      9  CA        -6.4240   17.4010    5.9050 C.3     3  LEU3        0.1728
     10  C         -6.1920   18.7240    5.1770 C.2     3  LEU3        0.2617
     11  O         -6.5040   19.7990    5.6950 O.2     3  LEU3       -0.2715
     12  CB        -5.0960   16.8690    6.4530 C.3     3  LEU3        0.0311
     13  CG        -4.2630   17.8060    7.3290 C.3     3  LEU3        0.0022
     14  CD1       -5.0570   18.2120    8.5560 C.3     3  LEU3        0.0001
     15  CD2       -2.9710   17.1040    7.7330 C.3     3  LEU3        0.0001
     16  N         -5.6500   18.6400    3.9680 N.am    4  GLY4       -0.1940
     17  CA        -5.3990   19.8450    3.2010 C.3     4  GLY4        0.2014
     18  C         -6.6530   20.6590    2.9310 C.2     4  GLY4        0.2638
     19  O         -6.6330   21.8880    3.0190 O.2     4  GLY4       -0.2714
     20  N         -7.7460   19.9830    2.5970 N.am    5  GLU5       -0.1977
     21  CA        -9.0060   20.6670    2.2970 C.3     5  GLU5        0.1602
     22  C         -9.6320   21.2520    3.5510 C.2     5  GLU5        0.2287
     23  O        -10.3050   22.2830    3.4990 O.2     5  GLU5       -0.2864
     24  CB        -9.9900   19.7010    1.6280 C.3     5  GLU5        0.0415
     25  CG        -9.4250   19.0180    0.3990 C.3     5  GLU5        0.1163
     26  CD       -10.4130   18.0730   -0.2600 C.2     5  GLU5        0.3649
     27  OE1      -11.1480   17.3680    0.4700 O.co2   5  GLU5       -0.2457
     28  OE2      -10.4450   18.0280   -1.5100 O.co2   5  GLU5       -0.2457
     29  N         -0.9030   25.5190    5.8680 N.3    22  THR22      -0.1218
     30  CA        -0.8440   24.4280    4.9020 C.3    22  THR22       0.1862
     31  C          0.5930   23.9550    4.7340 C.2    22  THR22       0.2287
     32  O          0.8760   22.7630    4.8170 O.2    22  THR22      -0.2866
     33  CB        -1.3900   24.8680    3.5240 C.3    22  THR22       0.1770
     34  OG1       -2.8130   25.0230    3.5990 O.3    22  THR22      -0.2211
     35  CG2       -1.0420   23.8400    2.4510 C.3    22  THR22       0.0375
     36  N          3.0740   16.1370    7.7940 N.3    29  LYS29      -0.1245
     37  CA         2.6140   14.8660    7.2550 C.3    29  LYS29       0.1561
     38  C          3.6360   14.1830    6.3570 C.2    29  LYS29       0.2260
     39  O          3.6910   12.9520    6.3130 O.2    29  LYS29      -0.2867
     40  CB         1.2580   15.0180    6.5500 C.3    29  LYS29       0.0271
     41  CG         1.1280   16.1570    5.5890 C.3    29  LYS29       0.0035
     42  CD        -0.3340   16.3190    5.1900 C.3    29  LYS29       0.0206
     43  CE        -0.5300   17.5420    4.3040 C.3    29  LYS29       0.1093
     44  NZ        -1.9430   17.7270    3.8960 N.3    29  LYS29      -0.1314
     45  N          4.6540   10.5640    7.1160 N.3    33  LYS33      -0.1245
     46  CA         4.6070    9.4980    6.1250 C.3    33  LYS33       0.1561
     47  C          5.9450    8.7730    6.0340 C.2    33  LYS33       0.2260
     48  O          5.9990    7.5400    6.0250 O.2    33  LYS33      -0.2867
     49  CB         4.2530   10.0660    4.7540 C.3    33  LYS33       0.0271
     50  CG         2.8000   10.4890    4.5970 C.3    33  LYS33       0.0035
     51  CD         2.5860   11.0720    3.2090 C.3    33  LYS33       0.0206
     52  CE         1.1450   11.4290    2.9700 C.3    33  LYS33       0.1093
     53  NZ         0.9360   11.9090    1.5770 N.3    33  LYS33      -0.1314
     54  N         -3.1580    7.3640    0.2530 N.3   182  GLY182     -0.1210
     55  CA        -1.9280    8.0900    0.5010 C.3   182  GLY182      0.1956
     56  C         -2.2460    9.4990    0.9630 C.2   182  GLY182      0.2612
     57  O         -1.5090   10.4360    0.6640 O.2   182  GLY182     -0.2717
     58  N         -3.3530    9.6520    1.6850 N.am  183  VAL183     -0.1965
     59  CA        -3.7560   10.9620    2.1860 C.3   183  VAL183      0.1727
     60  C         -4.3610   10.8770    3.5820 C.2   183  VAL183      0.2616
     61  O         -4.8700    9.8320    3.9890 O.2   183  VAL183     -0.2715
     62  CB        -4.8070   11.6400    1.2530 C.3   183  VAL183      0.0290
     63  CG1       -4.3030   11.6660   -0.1960 C.3   183  VAL183      0.0023
     64  CG2       -6.1230   10.9100    1.3380 C.3   183  VAL183      0.0023
     65  N         -4.2930   11.9820    4.3140 N.am  184  PHE184     -0.1974
     66  CA        -4.8740   12.0490    5.6470 C.3   184  PHE184      0.1639
     67  C         -6.3210   12.5280    5.5000 C.2   184  PHE184      0.2290
     68  O         -6.5820   13.5630    4.8930 O.2   184  PHE184     -0.2864
     69  CB        -4.0950   13.0230    6.5380 C.3   184  PHE184      0.0560
     70  CG        -2.8200   12.4530    7.0950 C.ar  184  PHE184     -0.0200
     71  CD1       -1.6220   12.5700    6.3990 C.ar  184  PHE184     -0.0042
     72  CD2       -2.8220   11.7850    8.3180 C.ar  184  PHE184     -0.0042
     73  CE1       -0.4390   12.0330    6.9100 C.ar  184  PHE184     -0.0003
     74  CE2       -1.6460   11.2430    8.8370 C.ar  184  PHE184     -0.0003
     75  CZ        -0.4510   11.3690    8.1290 C.ar  184  PHE184     -0.0000
@<TRIPOS>BOND
     1    28    26   ar
     2    26    25    1
     3    26    27   ar
     4    63    62    1
     5    54    55    1
     6    25    24    1
     7    55    56    1
     8    57    56    2
     9    56    58   am
    10     7     5    1
    11    62    64    1
    12    62    59    1
    13    53    52    1
    14    24    21    1
    15    58    59    1
    16     6     5    1
    17    59    60    1
    18     5     2    1
    19    21    20    1
    20    21    22    1
    21    35    33    1
    22    20    18   am
    23    18    19    2
    24    18    17    1
    25    52    51    1
    26     1     2    1
    27    17    16    1
    28    51    50    1
    29     2     3    1
    30    23    22    2
    31    33    34    1
    32    33    30    1
    33    60    61    2
    34    60    65   am
    35    44    43    1
    36    16    10   am
    37    43    42    1
    38    65    66    1
    39     3     4    2
    40     3     8   am
    41    50    49    1
    42    31    32    2
    43    31    30    1
    44    49    46    1
    45    68    67    2
    46    30    29    1
    47     8     9    1
    48    10    11    2
    49    10     9    1
    50    42    41    1
    51    67    66    1
    52    41    40    1
    53    66    69    1
    54     9    12    1
    55    48    47    2
    56    47    46    1
    57    46    45    1
    58    39    38    2
    59    38    37    1
    60    71    73   ar
    61    71    70   ar
    62    12    13    1
    63    69    70    1
    64    40    37    1
    65    73    75   ar
    66    70    72   ar
    67    37    36    1
    68    13    15    1
    69    13    14    1
    70    75    74   ar
    71    72    74   ar
