@<TRIPOS>MOLECULE
tmp/2qvxA00.pdb
 108 105 0 0 0
SMALL
GASTEIGER

@<TRIPOS>ATOM
      1  N        -18.8230   42.8640   -9.2830 N.3   182  PHE182     -0.1241
      2  CA       -19.1940   43.5390   -8.0730 C.3   182  PHE182      0.1605
      3  C        -19.4750   45.0070   -8.4150 C.2   182  PHE182      0.2264
      4  O        -20.1940   45.6750   -7.6710 O.2   182  PHE182     -0.2867
      5  CB       -18.1190   43.3980   -7.0020 C.3   182  PHE182      0.0534
      6  CG       -17.0760   44.4820   -7.0600 C.ar  182  PHE182     -0.0203
      7  CD1      -17.2920   45.7030   -6.4180 C.ar  182  PHE182     -0.0042
      8  CD2      -15.8820   44.2880   -7.7740 C.ar  182  PHE182     -0.0042
      9  CE1      -16.3510   46.7250   -6.4650 C.ar  182  PHE182     -0.0003
     10  CE2      -14.9010   45.2960   -7.8160 C.ar  182  PHE182     -0.0003
     11  CZ       -15.1370   46.5250   -7.1710 C.ar  182  PHE182     -0.0000
     12  N         -3.2280   48.6460   -9.8950 N.3   205  HIS205     -0.1226
     13  CA        -4.1120   48.3870   -8.8000 C.3   205  HIS205      0.1752
     14  C         -5.3170   47.5750   -9.3200 C.2   205  HIS205      0.2596
     15  O         -5.8850   47.8800  -10.3930 O.2   205  HIS205     -0.2718
     16  CB        -4.5590   49.6940   -8.2270 C.3   205  HIS205      0.0759
     17  CG        -5.2730   49.5500   -6.9370 C.ar  205  HIS205      0.0818
     18  ND1       -6.5340   49.0010   -6.8490 N.ar  205  HIS205     -0.2268
     19  CD2       -4.9080   49.8670   -5.6800 C.ar  205  HIS205      0.1154
     20  CE1       -6.9180   48.9950   -5.5860 C.ar  205  HIS205      0.1986
     21  NE2       -5.9440   49.5020   -4.8560 N.ar  205  HIS205     -0.2212
     22  N         -5.6650   46.5180   -8.5830 N.am  206  VAL206     -0.1966
     23  CA        -6.7260   45.6320   -8.9690 C.3   206  VAL206      0.1727
     24  C         -8.0110   46.3970   -9.3300 C.2   206  VAL206      0.2616
     25  O         -8.7740   45.9600  -10.2140 O.2   206  VAL206     -0.2715
     26  CB        -7.0410   44.5700   -7.8800 C.3   206  VAL206      0.0290
     27  CG1       -5.8850   43.6110   -7.7180 C.3   206  VAL206      0.0023
     28  CG2       -7.4200   45.2050   -6.5350 C.3   206  VAL206      0.0023
     29  N         -8.2600   47.5230   -8.6630 N.am  207  VAL207     -0.1977
     30  CA        -9.4800   48.2670   -8.9430 C.3   207  VAL207      0.1596
     31  C         -9.2820   48.8960  -10.3010 C.2   207  VAL207      0.2287
     32  O        -10.1550   48.8320  -11.1620 O.2   207  VAL207     -0.2864
     33  CB        -9.7480   49.4080   -7.9170 C.3   207  VAL207      0.0276
     34  CG1      -10.7830   50.4100   -8.4870 C.3   207  VAL207      0.0022
     35  CG2      -10.1810   48.8460   -6.5480 C.3   207  VAL207      0.0022
     36  N        -14.2870   55.8920  -10.9090 N.3   247  PHE247     -0.1241
     37  CA       -13.8010   55.3230   -9.6800 C.3   247  PHE247      0.1605
     38  C        -12.4790   56.0330   -9.3630 C.2   247  PHE247      0.2264
     39  O        -11.5230   55.9620  -10.1460 O.2   247  PHE247     -0.2867
     40  CB       -13.6110   53.8330   -9.8840 C.3   247  PHE247      0.0534
     41  CG       -13.5300   53.0570   -8.6220 C.ar  247  PHE247     -0.0203
     42  CD1      -12.8530   53.5670   -7.4920 C.ar  247  PHE247     -0.0042
     43  CD2      -14.0950   51.7920   -8.5490 C.ar  247  PHE247     -0.0042
     44  CE1      -12.7530   52.7840   -6.2970 C.ar  247  PHE247     -0.0003
     45  CE2      -14.0040   51.0160   -7.3780 C.ar  247  PHE247     -0.0003
     46  CZ       -13.3280   51.4930   -6.2480 C.ar  247  PHE247     -0.0000
     47  N        -17.4930   56.3920   -7.4710 N.3   276  THR276     -0.1218
     48  CA       -17.1070   55.2940   -6.5540 C.3   276  THR276      0.1862
     49  C        -15.7090   55.5780   -5.9750 C.2   276  THR276      0.2287
     50  O        -14.8460   56.2430   -6.6140 O.2   276  THR276     -0.2866
     51  CB       -17.0270   53.9550   -7.3180 C.3   276  THR276      0.1770
     52  OG1      -18.0870   53.8720   -8.2660 O.3   276  THR276     -0.2211
     53  CG2      -17.1190   52.7700   -6.4180 C.3   276  THR276      0.0375
     54  N        -12.7600   54.0800   -2.5060 N.3   278  ALA278     -0.1245
     55  CA       -12.4620   53.3670   -1.2840 C.3   278  ALA278      0.1562
     56  C        -12.1800   54.4410   -0.2580 C.2   278  ALA278      0.2260
     57  O        -11.0630   54.9730   -0.2200 O.2   278  ALA278     -0.2867
     58  CB       -11.2840   52.4510   -1.4610 C.3   278  ALA278      0.0290
     59  N        -16.7190   51.9220   -1.0650 N.3   301  GLY301     -0.1210
     60  CA       -16.4180   50.4910   -1.1000 C.3   301  GLY301      0.1956
     61  C        -15.1740   50.2230   -0.2690 C.2   301  GLY301      0.2612
     62  O        -14.2950   51.0820   -0.1620 O.2   301  GLY301     -0.2717
     63  N        -15.1180   49.0350    0.3430 N.am  302  TYR302     -0.1962
     64  CA       -13.9450   48.5340    1.0330 C.3   302  TYR302      0.1771
     65  C        -13.5430   47.2400    0.3590 C.2   302  TYR302      0.2620
     66  O        -14.3960   46.3300    0.1350 O.2   302  TYR302     -0.2715
     67  CB       -14.3060   48.2100    2.4410 C.3   302  TYR302      0.0574
     68  CG       -13.2110   47.4940    3.1840 C.ar  302  TYR302     -0.0198
     69  CD1      -12.1630   48.2200    3.8140 C.ar  302  TYR302     -0.0009
     70  CD2      -13.2180   46.1000    3.3010 C.ar  302  TYR302     -0.0009
     71  CE1      -11.1420   47.5630    4.5040 C.ar  302  TYR302      0.0417
     72  CE2      -12.2000   45.4230    4.0140 C.ar  302  TYR302      0.0417
     73  CZ       -11.1700   46.1650    4.5970 C.ar  302  TYR302      0.1957
     74  OH       -10.1830   45.5150    5.2840 O.3   302  TYR302     -0.2866
     75  N        -12.2510   47.1360    0.0410 N.am  303  GLY303     -0.1940
     76  CA       -11.7200   45.9650   -0.6680 C.3   303  GLY303      0.2014
     77  C        -10.2470   45.7700   -0.4000 C.2   303  GLY303      0.2640
     78  O         -9.6230   46.5540    0.3000 O.2   303  GLY303     -0.2714
     79  N         -9.6740   44.7210   -0.9660 N.am  304  THR304     -0.1936
     80  CA        -8.2750   44.4150   -0.7350 C.3   304  THR304      0.2028
     81  C         -7.7970   43.8200   -2.0180 C.2   304  THR304      0.2642
     82  O         -8.5790   43.2380   -2.7730 O.2   304  THR304     -0.2714
     83  CB        -8.1030   43.3240    0.3360 C.3   304  THR304      0.1808
     84  OG1       -8.8360   42.1460   -0.0510 O.3   304  THR304     -0.2208
     85  CG2       -8.5950   43.8150    1.6990 C.3   304  THR304      0.0379
     86  N         -6.5080   43.9490   -2.2700 N.am  305  THR305     -0.1950
     87  CA        -5.8820   43.2300   -3.3510 C.3   305  THR305      0.1897
     88  C         -6.2160   41.7350   -3.2660 C.2   305  THR305      0.2313
     89  O         -6.5530   41.1050   -4.2700 O.2   305  THR305     -0.2863
     90  CB        -4.3670   43.5130   -3.3140 C.3   305  THR305      0.1794
     91  OG1       -4.1600   44.8820   -3.7350 O.3   305  THR305     -0.2208
     92  CG2       -3.5760   42.5410   -4.2260 C.3   305  THR305      0.0378
     93  N        -10.5150   41.4460   -3.3520 N.3   308  MET308     -0.1230
     94  CA       -11.3360   42.4930   -3.9910 C.3   308  MET308      0.1702
     95  C        -12.3630   43.0850   -3.0160 C.2   308  MET308      0.2592
     96  O        -11.9930   43.5420   -1.9430 O.2   308  MET308     -0.2718
     97  CB       -11.9990   42.0160   -5.2690 C.3   308  MET308      0.0401
     98  CG       -12.2730   43.1420   -6.1830 C.3   308  MET308      0.0596
     99  SD       -10.7100   43.6030   -6.9170 S.3   308  MET308     -0.1393
    100  CE       -11.2140   44.9510   -7.9270 C.3   308  MET308      0.0692
    101  N        -13.6350   43.0730   -3.3780 N.am  309  ASN309     -0.1974
    102  CA       -14.6080   43.8700   -2.6630 C.3   309  ASN309      0.1688
    103  C        -15.2630   43.1310   -1.5200 C.2   309  ASN309      0.2292
    104  O        -15.7250   42.0180   -1.7070 O.2   309  ASN309     -0.2864
    105  CB       -15.7030   44.4030   -3.6070 C.3   309  ASN309      0.1181
    106  CG       -16.6790   45.2930   -2.8710 C.2   309  ASN309      0.2629
    107  OD1      -16.2640   46.2550   -2.2100 O.2   309  ASN309     -0.2716
    108  ND2      -17.9530   44.9410   -2.8860 N.am  309  ASN309     -0.0877
@<TRIPOS>BOND
     1    32    31    2
     2    36    37    1
     3    15    14    2
     4    31    30    1
     5    25    24    2
     6    39    38    2
     7    12    13    1
     8    40    37    1
     9    40    41    1
    10    37    38    1
    11    24    23    1
    12    24    29   am
    13    14    13    1
    14    14    22   am
    15     1     2    1
    16    23    22    1
    17    23    26    1
    18    30    29    1
    19    30    33    1
    20    13    16    1
    21    41    43   ar
    22    41    42   ar
    23    43    45   ar
    24    34    33    1
    25     3     2    1
    26     3     4    2
    27    52    51    1
    28    16    17    1
    29     2     5    1
    30   100    99    1
    31    33    35    1
    32    26    27    1
    33    26    28    1
    34    10     8   ar
    35    10    11   ar
    36     8     6   ar
    37    42    44   ar
    38    47    48    1
    39    45    46   ar
    40    51    48    1
    41    51    53    1
    42    11     9   ar
    43     6     5    1
    44     6     7   ar
    45    17    18   ar
    46    17    19   ar
    47    99    98    1
    48    18    20   ar
    49    50    49    2
    50    48    49    1
    51     9     7   ar
    52    44    46   ar
    53    98    97    1
    54    19    21   ar
    55    20    21   ar
    56    97    94    1
    57    89    88    2
    58    92    90    1
    59    94    93    1
    60    94    95    1
    61    91    90    1
    62   105   106    1
    63   105   102    1
    64   101    95   am
    65   101   102    1
    66    87    90    1
    67    87    88    1
    68    87    86    1
    69    95    96    2
    70   108   106   am
    71   106   107    2
    72    82    81    2
    73   102   103    1
    74    54    55    1
    75    86    81   am
    76    81    80    1
    77   104   103    2
    78    58    55    1
    79    55    56    1
    80    60    59    1
    81    60    61    1
    82    79    80    1
    83    79    77   am
    84    80    83    1
    85    76    77    1
    86    76    75    1
    87    77    78    2
    88    61    62    2
    89    61    63   am
    90    56    57    2
    91    84    83    1
    92    75    65   am
    93    66    65    2
    94    83    85    1
    95    63    64    1
    96    65    64    1
    97    64    67    1
    98    67    68    1
    99    68    70   ar
   100    68    69   ar
   101    70    72   ar
   102    69    71   ar
   103    72    73   ar
   104    71    73   ar
   105    73    74    1
