@<TRIPOS>MOLECULE
tmp/2qw5A00.pdb
 127 121 0 0 0
SMALL
GASTEIGER

@<TRIPOS>ATOM
      1  N         14.2530   34.3850   91.2300 N.3    10  PHE10      -0.1241
      2  CA        15.6590   33.9560   91.5090 C.3    10  PHE10       0.1605
      3  C         16.2420   32.9310   90.5000 C.2    10  PHE10       0.2264
      4  O         17.4340   32.6080   90.5640 O.2    10  PHE10      -0.2867
      5  CB        15.7890   33.4130   92.9250 C.3    10  PHE10       0.0534
      6  CG        15.6000   34.4460   94.0050 C.ar   10  PHE10      -0.0203
      7  CD1       15.9960   35.7810   93.8410 C.ar   10  PHE10      -0.0042
      8  CD2       15.1080   34.0620   95.2410 C.ar   10  PHE10      -0.0042
      9  CE1       15.9150   36.6890   94.8720 C.ar   10  PHE10      -0.0003
     10  CE2       14.9940   35.0010   96.2650 C.ar   10  PHE10      -0.0003
     11  CZ        15.4170   36.3070   96.0820 C.ar   10  PHE10      -0.0000
     12  N          9.7720   39.3480   97.5440 N.3    80  ASN80      -0.1225
     13  CA        10.8270   38.9220   98.4340 C.3    80  ASN80       0.1785
     14  C         11.6240   40.1890   98.8170 C.2    80  ASN80       0.2597
     15  O         12.1790   40.8940   97.9670 O.2    80  ASN80      -0.2718
     16  CB        11.7030   37.8590   97.8060 C.3    80  ASN80       0.1169
     17  CG        12.6760   37.2790   98.7720 C.2    80  ASN80       0.2627
     18  OD1       13.6180   37.9410   99.1640 O.2    80  ASN80      -0.2716
     19  ND2       12.4800   36.0240   99.1290 N.am   80  ASN80      -0.0877
     20  N         11.6550   40.4550  100.1070 N.am   81  VAL81      -0.1966
     21  CA        12.2430   41.6550  100.6610 C.3    81  VAL81       0.1727
     22  C         13.0420   41.2880  101.8890 C.2    81  VAL81       0.2616
     23  O         12.5710   40.5180  102.7070 O.2    81  VAL81      -0.2715
     24  CB        11.1540   42.7090  101.0630 C.3    81  VAL81       0.0290
     25  CG1       11.7820   43.8550  101.7920 C.3    81  VAL81       0.0023
     26  CG2       10.4190   43.2560   99.7970 C.3    81  VAL81       0.0023
     27  N         14.2220   41.8700  102.0070 N.am   82  GLY82      -0.1955
     28  CA        15.0900   41.6460  103.1550 C.3    82  GLY82       0.1869
     29  C         15.5420   42.9030  103.8370 C.2    82  GLY82       0.2309
     30  O         15.7640   43.9290  103.1950 O.2    82  GLY82      -0.2863
     31  N         13.5350   37.7920  104.9280 N.3   120  PRO120     -0.2116
     32  CA        14.2770   38.0310  106.1510 C.3   120  PRO120      0.1372
     33  C         14.2120   39.5190  106.5810 C.2   120  PRO120      0.2244
     34  O         15.2230   40.2480  106.5440 O.2   120  PRO120     -0.2868
     35  CB        15.6850   37.5800  105.7730 C.3   120  PRO120      0.0268
     36  CG        15.7700   37.9130  104.2990 C.3   120  PRO120      0.0207
     37  CD        14.4380   37.7150  103.7500 C.3   120  PRO120      0.0892
     38  N         19.7030   40.1340  106.2690 N.3   125  TYR125     -0.1241
     39  CA        20.0440   38.8750  105.6430 C.3   125  TYR125      0.1605
     40  C         21.5380   38.7400  105.4100 C.2   125  TYR125      0.2264
     41  O         22.1330   39.6040  104.7820 O.2   125  TYR125     -0.2867
     42  CB        19.3120   38.7000  104.3050 C.3   125  TYR125      0.0534
     43  CG        19.7960   37.4940  103.5480 C.ar  125  TYR125     -0.0201
     44  CD1       19.3680   36.2110  103.8920 C.ar  125  TYR125     -0.0009
     45  CD2       20.6930   37.6290  102.4790 C.ar  125  TYR125     -0.0009
     46  CE1       19.8230   35.0980  103.2220 C.ar  125  TYR125      0.0417
     47  CE2       21.1670   36.5180  101.8200 C.ar  125  TYR125      0.0417
     48  CZ        20.7250   35.2630  102.1830 C.ar  125  TYR125      0.1957
     49  OH        21.1940   34.1890  101.5060 O.3   125  TYR125     -0.2866
     50  N         10.6160   34.7650  107.1030 N.3   174  GLU174     -0.1245
     51  CA        11.2130   33.4950  106.7060 C.3   174  GLU174      0.1567
     52  C         12.3080   32.9930  107.6620 C.2   174  GLU174      0.2260
     53  O         13.2900   33.6950  107.8850 O.2   174  GLU174     -0.2867
     54  CB        11.8030   33.6570  105.2880 C.3   174  GLU174      0.0388
     55  CG        12.2330   32.3260  104.6530 C.3   174  GLU174      0.1160
     56  CD        12.8660   32.4850  103.2870 C.2   174  GLU174      0.3649
     57  OE1       13.2760   33.6330  102.9550 O.co2 174  GLU174     -0.2457
     58  OE2       12.9460   31.4310  102.5720 O.co2 174  GLU174     -0.2457
     59  N         15.4660   31.0470  107.9430 N.3   176  ILE176     -0.1245
     60  CA        16.4920   30.7760  106.9070 C.3   176  ILE176      0.1561
     61  C         17.6340   30.0360  107.5800 C.2   176  ILE176      0.2260
     62  O         18.0100   30.3970  108.6750 O.2   176  ILE176     -0.2867
     63  CB        16.9720   32.0970  106.2780 C.3   176  ILE176      0.0252
     64  CG1       15.8860   32.6510  105.3460 C.3   176  ILE176      0.0019
     65  CG2       18.2790   31.9340  105.4810 C.3   176  ILE176      0.0019
     66  CD1       16.1320   34.0440  104.8010 C.3   176  ILE176      0.0001
     67  N         23.1440   30.5460  105.7310 N.3   180  GLU180     -0.1245
     68  CA        22.9360   31.8400  105.0900 C.3   180  GLU180      0.1567
     69  C         22.7810   33.0530  105.9850 C.2   180  GLU180      0.2260
     70  O         23.0540   34.1240  105.5140 O.2   180  GLU180     -0.2867
     71  CB        21.6940   31.8040  104.2050 C.3   180  GLU180      0.0388
     72  CG        21.7150   30.7940  103.0890 C.3   180  GLU180      0.1160
     73  CD        20.4350   30.8140  102.2890 C.2   180  GLU180      0.3649
     74  OE1       19.9250   31.8980  101.9710 O.co2 180  GLU180     -0.2457
     75  OE2       19.9750   29.7340  101.9280 O.co2 180  GLU180     -0.2457
     76  N         14.8590   25.3860  103.9530 N.3   210  HIS210     -0.1241
     77  CA        15.2210   25.8620  105.3190 C.3   210  HIS210      0.1621
     78  C         14.7060   24.9670  106.4150 C.2   210  HIS210      0.2264
     79  O         15.4350   24.7610  107.4230 O.2   210  HIS210     -0.2867
     80  CB        14.8280   27.3130  105.5690 C.3   210  HIS210      0.0745
     81  CG        15.3900   28.2570  104.5630 C.ar  210  HIS210      0.0817
     82  ND1       16.7220   28.2600  104.2130 N.ar  210  HIS210     -0.2268
     83  CD2       14.8030   29.2320  103.8380 C.ar  210  HIS210      0.1154
     84  CE1       16.9190   29.1730  103.2740 C.ar  210  HIS210      0.1986
     85  NE2       15.7830   29.8170  103.0720 N.ar  210  HIS210     -0.2212
     86  N         18.9220   23.9750   96.6620 N.3   244  ARG244     -0.1245
     87  CA        18.2380   25.1370   96.0680 C.3   244  ARG244      0.1563
     88  C         18.1860   25.1000   94.5430 C.2   244  ARG244      0.2260
     89  O         17.7790   26.0760   93.9780 O.2   244  ARG244     -0.2867
     90  CB        18.7780   26.4940   96.5310 C.3   244  ARG244      0.0307
     91  CG        19.1930   26.6260   97.9740 C.3   244  ARG244      0.0489
     92  CD        18.2340   26.1480   99.0040 C.3   244  ARG244      0.2205
     93  NE        16.9240   26.7800   98.9970 N.pl3 244  ARG244     -0.0865
     94  CZ        16.5750   27.9480   99.5530 C.cat 244  ARG244      0.5346
     95  NH1       17.4600   28.7950  100.1190 N.pl3 244  ARG244      0.1354
     96  NH2       15.3090   28.3200   99.4530 N.pl3 244  ARG244      0.1354
     97  N         10.7820   27.8320   94.5860 N.3   272  GLU272     -0.1245
     98  CA        11.8960   28.7650   94.7560 C.3   272  GLU272      0.1567
     99  C         13.2450   28.1020   94.4370 C.2   272  GLU272      0.2260
    100  O         13.8270   27.4170   95.2660 O.2   272  GLU272     -0.2867
    101  CB        11.9100   29.3660   96.1370 C.3   272  GLU272      0.0388
    102  CG        12.8240   30.6110   96.1670 C.3   272  GLU272      0.1160
    103  CD        12.9010   31.2310   97.5100 C.2   272  GLU272      0.3649
    104  OE1       13.1410   30.4390   98.4550 O.co2 272  GLU272     -0.2457
    105  OE2       12.7620   32.4710   97.6130 O.co2 272  GLU272     -0.2457
    106  N         17.1020   28.8380   93.1170 N.3   274  PHE274     -0.1241
    107  CA        18.1710   29.8240   93.0590 C.3   274  PHE274      0.1605
    108  C         19.1000   29.3820   91.9390 C.2   274  PHE274      0.2264
    109  O         19.8660   28.4510   92.0880 O.2   274  PHE274     -0.2867
    110  CB        18.9210   29.8970   94.3910 C.3   274  PHE274      0.0534
    111  CG        18.1450   30.5820   95.4590 C.ar  274  PHE274     -0.0203
    112  CD1       17.0920   29.9370   96.0770 C.ar  274  PHE274     -0.0042
    113  CD2       18.4400   31.8800   95.8320 C.ar  274  PHE274     -0.0042
    114  CE1       16.3480   30.5680   97.0900 C.ar  274  PHE274     -0.0003
    115  CE2       17.6970   32.5070   96.8770 C.ar  274  PHE274     -0.0003
    116  CZ        16.6530   31.8310   97.4690 C.ar  274  PHE274     -0.0000
    117  N         24.2720   34.6570   93.3750 N.3   280  PHE280     -0.1241
    118  CA        24.2000   33.5340   94.2880 C.3   280  PHE280      0.1605
    119  C         25.3740   32.5810   94.3190 C.2   280  PHE280      0.2264
    120  O         25.4700   31.8370   95.2750 O.2   280  PHE280     -0.2867
    121  CB        22.9130   32.7270   94.0350 C.3   280  PHE280      0.0534
    122  CG        21.6520   33.5380   94.2330 C.ar  280  PHE280     -0.0203
    123  CD1       21.4300   34.1960   95.4360 C.ar  280  PHE280     -0.0042
    124  CD2       20.6990   33.6360   93.2340 C.ar  280  PHE280     -0.0042
    125  CE1       20.2920   34.9710   95.6280 C.ar  280  PHE280     -0.0003
    126  CE2       19.5560   34.4120   93.4200 C.ar  280  PHE280     -0.0003
    127  CZ        19.3530   35.0660   94.6170 C.ar  280  PHE280     -0.0000
@<TRIPOS>BOND
     1     3     4    2
     2     3     2    1
     3     1     2    1
     4     2     5    1
     5   108   109    2
     6   108   107    1
     7     5     6    1
     8   107   106    1
     9   107   110    1
    10   124   126   ar
    11   124   122   ar
    12   117   118    1
    13   126   127   ar
    14     7     6   ar
    15     7     9   ar
    16    89    88    2
    17     6     8   ar
    18   121   122    1
    19   121   118    1
    20   122   123   ar
    21   118   119    1
    22   119   120    2
    23   110   111    1
    24    99    98    1
    25    99   100    2
    26    88    87    1
    27    97    98    1
    28   127   125   ar
    29    98   101    1
    30     9    11   ar
    31     8    10   ar
    32   123   125   ar
    33   111   113   ar
    34   111   112   ar
    35   113   115   ar
    36    87    90    1
    37    87    86    1
    38   112   114   ar
    39    11    10   ar
    40   101   102    1
    41   102   103    1
    42    90    91    1
    43   115   116   ar
    44   114   116   ar
    45   103   105   ar
    46   103   104   ar
    47    12    13    1
    48    16    13    1
    49    16    17    1
    50    15    14    2
    51    91    92    1
    52    13    14    1
    53    17    19   am
    54    17    18    2
    55    14    20   am
    56    93    92    1
    57    93    94    2
    58    96    94    1
    59    94    95    1
    60    26    24    1
    61    20    21    1
    62    21    24    1
    63    21    22    1
    64    24    25    1
    65    49    48    1
    66    47    48   ar
    67    47    45   ar
    68    22    27   am
    69    22    23    2
    70    75    73   ar
    71    74    73   ar
    72    27    28    1
    73    48    46   ar
    74    73    72    1
    75    45    43   ar
    76    58    56   ar
    77    57    56   ar
    78    85    84   ar
    79    85    83   ar
    80    72    71    1
    81    28    29    1
    82    30    29    2
    83    46    44   ar
    84    84    82   ar
    85    56    55    1
    86    43    44   ar
    87    43    42    1
    88    37    36    1
    89    37    31    1
    90    83    81   ar
    91    76    77    1
    92    71    68    1
    93    82    81   ar
    94    36    35    1
    95    42    39    1
    96    81    80    1
    97    55    54    1
    98    41    40    2
    99    66    64    1
   100    31    32    1
   101    68    67    1
   102    68    69    1
   103    54    51    1
   104    77    80    1
   105    77    78    1
   106    64    63    1
   107    40    39    1
   108    65    63    1
   109    70    69    2
   110    39    38    1
   111    35    32    1
   112    32    33    1
   113    63    60    1
   114    78    79    2
   115    34    33    2
   116    51    50    1
   117    51    52    1
   118    60    61    1
   119    60    59    1
   120    61    62    2
   121    52    53    2
