@<TRIPOS>MOLECULE
tmp/2qw8A01.pdb
 135 132 0 0 0
SMALL
GASTEIGER

@<TRIPOS>ATOM
      1  N          8.4390   -2.8840   17.0360 N.3    81  PHE81      -0.1241
      2  CA         9.0750   -2.4740   15.7860 C.3    81  PHE81       0.1605
      3  C          8.1750   -2.4570   14.5510 C.2    81  PHE81       0.2264
      4  O          8.2120   -1.5090   13.7660 O.2    81  PHE81      -0.2867
      5  CB        10.2900   -3.3650   15.5020 C.3    81  PHE81       0.0534
      6  CG        11.5580   -2.9170   16.1810 C.ar   81  PHE81      -0.0203
      7  CD1       12.3880   -3.8410   16.8150 C.ar   81  PHE81      -0.0042
      8  CD2       11.9310   -1.5790   16.1750 C.ar   81  PHE81      -0.0042
      9  CE1       13.5700   -3.4290   17.4380 C.ar   81  PHE81      -0.0003
     10  CE2       13.1110   -1.1550   16.7940 C.ar   81  PHE81      -0.0003
     11  CZ        13.9260   -2.0820   17.4250 C.ar   81  PHE81      -0.0000
     12  N         12.7430    3.5330   23.9990 N.3   108  PHE108     -0.1227
     13  CA        13.1470    2.5500   25.0040 C.3   108  PHE108      0.1736
     14  C         14.2800    1.6240   24.6040 C.2   108  PHE108      0.2596
     15  O         14.2290    0.4170   24.8380 O.2   108  PHE108     -0.2718
     16  CB        11.9230    1.7330   25.4350 C.3   108  PHE108      0.0547
     17  CG        10.7760    2.5880   25.8870 C.ar  108  PHE108     -0.0202
     18  CD1        9.6170    2.6900   25.1210 C.ar  108  PHE108     -0.0042
     19  CD2       10.8990    3.3740   27.0280 C.ar  108  PHE108     -0.0042
     20  CE1        8.5940    3.5760   25.4810 C.ar  108  PHE108     -0.0003
     21  CE2        9.8900    4.2610   27.3990 C.ar  108  PHE108     -0.0003
     22  CZ         8.7360    4.3650   26.6270 C.ar  108  PHE108     -0.0000
     23  N         15.3180    2.1960   24.0120 N.am  109  GLY109     -0.1942
     24  CA        16.4500    1.3870   23.6140 C.3   109  GLY109      0.2014
     25  C         17.6690    2.2730   23.4970 C.2   109  GLY109      0.2638
     26  O         18.0140    3.0000   24.4300 O.2   109  GLY109     -0.2714
     27  N         18.3250    2.2070   22.3480 N.am  110  VAL110     -0.1977
     28  CA        19.4980    3.0260   22.0970 C.3   110  VAL110      0.1596
     29  C         19.0550    4.4670   21.8320 C.2   110  VAL110      0.2287
     30  O         17.8730    4.7300   21.5950 O.2   110  VAL110     -0.2864
     31  CB        20.2670    2.5000   20.8670 C.3   110  VAL110      0.0276
     32  CG1       20.6950    1.0510   21.1070 C.3   110  VAL110      0.0022
     33  CG2       19.3860    2.5940   19.6270 C.3   110  VAL110      0.0022
     34  N         19.1930   -2.9610   11.2560 N.3   121  PHE121     -0.1241
     35  CA        18.7200   -2.2500   12.4420 C.3   121  PHE121      0.1605
     36  C         18.5920   -0.7500   12.1770 C.2   121  PHE121      0.2264
     37  O         17.6820   -0.0920   12.6890 O.2   121  PHE121     -0.2867
     38  CB        19.6790   -2.5160   13.6120 C.3   121  PHE121      0.0534
     39  CG        19.2060   -1.9690   14.9330 C.ar  121  PHE121     -0.0203
     40  CD1       17.8670   -2.0670   15.3030 C.ar  121  PHE121     -0.0042
     41  CD2       20.1100   -1.4010   15.8250 C.ar  121  PHE121     -0.0042
     42  CE1       17.4360   -1.6100   16.5410 C.ar  121  PHE121     -0.0003
     43  CE2       19.6920   -0.9380   17.0750 C.ar  121  PHE121     -0.0003
     44  CZ        18.3480   -1.0450   17.4300 C.ar  121  PHE121     -0.0000
     45  N         12.0410    5.2610   13.9890 N.3   128  LYS128     -0.1245
     46  CA        11.8350    5.9140   15.2760 C.3   128  LYS128      0.1561
     47  C         12.2570    7.3820   15.1660 C.2   128  LYS128      0.2260
     48  O         11.6550    8.2550   15.7930 O.2   128  LYS128     -0.2867
     49  CB        12.6180    5.1940   16.3760 C.3   128  LYS128      0.0271
     50  CG        12.1260    3.7680   16.5930 C.3   128  LYS128      0.0035
     51  CD        12.7370    3.1440   17.8340 C.3   128  LYS128      0.0206
     52  CE        12.0240    1.8490   18.1920 C.3   128  LYS128      0.1093
     53  NZ        12.5550    1.2620   19.4490 N.3   128  LYS128     -0.1314
     54  N         15.6190   -9.5170   29.7510 N.3   153  TYR153     -0.1227
     55  CA        15.6260   -9.9150   28.3580 C.3   153  TYR153      0.1736
     56  C         17.0100  -10.3750   27.9220 C.2   153  TYR153      0.2595
     57  O         17.1650  -11.4760   27.3860 O.2   153  TYR153     -0.2718
     58  CB        15.1920   -8.7360   27.4830 C.3   153  TYR153      0.0548
     59  CG        14.9670   -9.0990   26.0360 C.ar  153  TYR153     -0.0200
     60  CD1       13.6770   -9.2850   25.5390 C.ar  153  TYR153     -0.0009
     61  CD2       16.0410   -9.2630   25.1600 C.ar  153  TYR153     -0.0009
     62  CE1       13.4620   -9.6220   24.2050 C.ar  153  TYR153      0.0417
     63  CE2       15.8360   -9.6030   23.8280 C.ar  153  TYR153      0.0417
     64  CZ        14.5420   -9.7790   23.3570 C.ar  153  TYR153      0.1957
     65  OH        14.3260  -10.1020   22.0340 O.3   153  TYR153     -0.2866
     66  N         18.0180   -9.5370   28.1490 N.am  154  PHE154     -0.1976
     67  CA        19.3580   -9.9080   27.7270 C.3   154  PHE154      0.1639
     68  C         20.1480  -10.8200   28.6500 C.2   154  PHE154      0.2290
     69  O         21.0860  -11.4630   28.1990 O.2   154  PHE154     -0.2864
     70  CB        20.1610   -8.6640   27.3460 C.3   154  PHE154      0.0560
     71  CG        19.7690   -8.1070   26.0080 C.ar  154  PHE154     -0.0200
     72  CD1       18.9330   -7.0000   25.9100 C.ar  154  PHE154     -0.0042
     73  CD2       20.1700   -8.7470   24.8380 C.ar  154  PHE154     -0.0042
     74  CE1       18.4990   -6.5410   24.6660 C.ar  154  PHE154     -0.0003
     75  CE2       19.7440   -8.2990   23.5910 C.ar  154  PHE154     -0.0003
     76  CZ        18.9070   -7.1960   23.5030 C.ar  154  PHE154     -0.0000
     77  N         18.9490  -13.8480   27.2180 N.3   157  TYR157     -0.1241
     78  CA        19.5190  -14.0380   25.8960 C.3   157  TYR157      0.1605
     79  C         21.0080  -14.3830   25.9020 C.2   157  TYR157      0.2264
     80  O         21.4510  -15.2760   25.1700 O.2   157  TYR157     -0.2867
     81  CB        19.3060  -12.7790   25.0530 C.3   157  TYR157      0.0534
     82  CG        19.5170  -13.0180   23.5820 C.ar  157  TYR157     -0.0201
     83  CD1       18.4750  -13.4820   22.7790 C.ar  157  TYR157     -0.0009
     84  CD2       20.7690  -12.8320   22.9990 C.ar  157  TYR157     -0.0009
     85  CE1       18.6710  -13.7590   21.4310 C.ar  157  TYR157      0.0417
     86  CE2       20.9790  -13.1090   21.6500 C.ar  157  TYR157      0.0417
     87  CZ        19.9270  -13.5710   20.8740 C.ar  157  TYR157      0.1957
     88  OH        20.1260  -13.8550   19.5430 O.3   157  TYR157     -0.2866
     89  N         18.0660   -9.3130   14.4060 N.3   254  PRO254     -0.2116
     90  CA        18.6370   -9.6430   15.7150 C.3   254  PRO254      0.1372
     91  C         20.1630   -9.5790   15.6830 C.2   254  PRO254      0.2244
     92  O         20.7920   -9.0550   16.5960 O.2   254  PRO254     -0.2868
     93  CB        18.1260  -11.0570   15.9650 C.3   254  PRO254      0.0268
     94  CG        16.7970  -11.0420   15.3000 C.3   254  PRO254      0.0207
     95  CD        17.0860  -10.3350   13.9970 C.3   254  PRO254      0.0892
     96  N         21.3360   -6.0440   15.6840 N.3   257  ILE257     -0.1231
     97  CA        21.1570   -5.4620   17.0040 C.3   257  ILE257      0.1692
     98  C         22.2690   -5.9240   17.9500 C.2   257  ILE257      0.2591
     99  O         22.8390   -5.1170   18.6800 O.2   257  ILE257     -0.2718
    100  CB        19.7760   -5.8350   17.5810 C.3   257  ILE257      0.0266
    101  CG1       18.6810   -5.1670   16.7390 C.3   257  ILE257      0.0019
    102  CG2       19.6800   -5.4150   19.0420 C.3   257  ILE257      0.0020
    103  CD1       17.2760   -5.5110   17.1600 C.3   257  ILE257      0.0001
    104  N         22.5890   -7.2150   17.9250 N.am  258  LEU258     -0.1980
    105  CA        23.6390   -7.7430   18.7910 C.3   258  LEU258      0.1596
    106  C         24.9650   -7.0470   18.4950 C.2   258  LEU258      0.2287
    107  O         25.7540   -6.7700   19.4020 O.2   258  LEU258     -0.2864
    108  CB        23.7870   -9.2580   18.5980 C.3   258  LEU258      0.0297
    109  CG        22.6040  -10.1080   19.0770 C.3   258  LEU258      0.0022
    110  CD1       22.8410  -11.5620   18.7120 C.3   258  LEU258      0.0001
    111  CD2       22.4320   -9.9540   20.5860 C.3   258  LEU258      0.0001
    112  N         24.7130   -3.4310   20.0490 N.3   261  LEU261     -0.1245
    113  CA        24.7720   -3.4250   21.5000 C.3   261  LEU261      0.1561
    114  C         26.0100   -4.0340   22.1380 C.2   261  LEU261      0.2260
    115  O         26.5590   -3.4780   23.0890 O.2   261  LEU261     -0.2867
    116  CB        23.5480   -4.1510   22.0650 C.3   261  LEU261      0.0270
    117  CG        22.1630   -3.6250   21.7020 C.3   261  LEU261      0.0019
    118  CD1       21.1090   -4.6070   22.2020 C.3   261  LEU261      0.0001
    119  CD2       21.9610   -2.2460   22.3180 C.3   261  LEU261      0.0001
    120  N         11.7150  -10.3630   21.0070 N.3   308  ALA308     -0.1245
    121  CA        11.0590   -9.2180   20.3790 C.3   308  ALA308      0.1562
    122  C         10.4800   -9.5460   19.0100 C.2   308  ALA308      0.2260
    123  O         10.9550  -10.4520   18.3180 O.2   308  ALA308     -0.2867
    124  CB        12.0440   -8.0580   20.2630 C.3   308  ALA308      0.0290
    125  N          9.7150   -8.7750   15.1000 N.3   310  PHE310     -0.1241
    126  CA        10.3600   -8.0910   13.9870 C.3   310  PHE310      0.1605
    127  C          9.5740   -8.3100   12.6970 C.2   310  PHE310      0.2264
    128  O          8.7880   -9.2790   12.6840 O.2   310  PHE310     -0.2867
    129  CB        11.7900   -8.6100   13.7850 C.3   310  PHE310      0.0534
    130  CG        12.6770   -8.4470   14.9760 C.ar  310  PHE310     -0.0203
    131  CD1       12.9490   -7.1880   15.4750 C.ar  310  PHE310     -0.0042
    132  CD2       13.2300   -9.5580   15.6120 C.ar  310  PHE310     -0.0042
    133  CE1       13.7780   -7.0280   16.6200 C.ar  310  PHE310     -0.0003
    134  CE2       14.0400   -9.4170   16.7300 C.ar  310  PHE310     -0.0003
    135  CZ        14.3080   -8.1510   17.2290 C.ar  310  PHE310     -0.0000
@<TRIPOS>BOND
     1    34    35    1
     2    36    35    1
     3    36    37    2
     4    35    38    1
     5   128   127    2
     6   127   126    1
     7    38    39    1
     8     4     3    2
     9   129   126    1
    10   129   130    1
    11   126   125    1
    12    45    46    1
    13    95    89    1
    14    95    94    1
    15    89    90    1
    16     3     2    1
    17    39    40   ar
    18    39    41   ar
    19   130   131   ar
    20   130   132   ar
    21    47    46    1
    22    47    48    2
    23    46    49    1
    24    94    93    1
    25    40    42   ar
    26   131   133   ar
    27     5     2    1
    28     5     6    1
    29   132   134   ar
    30    91    90    1
    31    91    92    2
    32    96    97    1
    33    90    93    1
    34     2     1    1
    35    41    43   ar
    36     8     6   ar
    37     8    10   ar
    38     6     7   ar
    39    49    50    1
    40    42    44   ar
    41    50    51    1
    42   133   135   ar
    43   134   135   ar
    44   101   103    1
    45   101   100    1
    46    10    11   ar
    47     7     9   ar
    48    97   100    1
    49    97    98    1
    50    43    44   ar
    51    11     9   ar
    52   100   102    1
    53    51    52    1
    54   104    98   am
    55   104   105    1
    56    98    99    2
    57    52    53    1
    58   123   122    2
    59   106   105    1
    60   106   107    2
    61   108   105    1
    62   108   109    1
    63   110   109    1
    64   122   121    1
    65   109   111    1
    66    88    87    1
    67    33    31    1
    68   112   113    1
    69   124   121    1
    70   121   120    1
    71    31    32    1
    72    31    28    1
    73    87    85   ar
    74    87    86   ar
    75    85    83   ar
    76   113   116    1
    77   113   114    1
    78    30    29    2
    79    86    84   ar
    80   117   116    1
    81   117   118    1
    82   117   119    1
    83    29    28    1
    84    65    64    1
    85    28    27    1
    86   114   115    2
    87    27    25   am
    88    83    82   ar
    89    84    82   ar
    90    64    63   ar
    91    64    62   ar
    92    25    24    1
    93    25    26    2
    94    76    75   ar
    95    76    74   ar
    96    82    81    1
    97    75    73   ar
    98    24    23    1
    99    63    61   ar
   100    12    13    1
   101    23    14   am
   102    62    60   ar
   103    14    15    2
   104    14    13    1
   105    74    72   ar
   106    73    71   ar
   107    13    16    1
   108    81    78    1
   109    18    20   ar
   110    18    17   ar
   111    61    59   ar
   112    80    79    2
   113    16    17    1
   114    20    22   ar
   115    60    59   ar
   116    17    19   ar
   117    78    79    1
   118    78    77    1
   119    72    71   ar
   120    71    70    1
   121    59    58    1
   122    22    21   ar
   123    19    21   ar
   124    70    67    1
   125    57    56    2
   126    58    55    1
   127    67    66    1
   128    67    68    1
   129    56    66   am
   130    56    55    1
   131    69    68    2
   132    55    54    1
