@<TRIPOS>MOLECULE
tmp/2qwiA01.pdb
 171 160 0 0 0
SMALL
GASTEIGER

@<TRIPOS>ATOM
      1  N         15.7150   13.2800   63.5810 N.3    37  ARG37      -0.1231
      2  CA        16.3790   14.5750   63.5360 C.3    37  ARG37       0.1694
      3  C         16.9830   14.7560   62.1540 C.2    37  ARG37       0.2591
      4  O         16.9910   13.8370   61.3520 O.2    37  ARG37      -0.2718
      5  CB        17.3910   14.8390   64.6530 C.3    37  ARG37       0.0321
      6  CG        16.7870   15.7260   65.7830 C.3    37  ARG37       0.0489
      7  CD        17.7770   16.7650   66.3220 C.3    37  ARG37       0.2205
      8  NE        18.1620   17.7570   65.3180 N.pl3  37  ARG37      -0.0865
      9  CZ        19.3350   18.3800   65.2760 C.cat  37  ARG37       0.5346
     10  NH1       20.2750   18.1230   66.1860 N.pl3  37  ARG37       0.1354
     11  NH2       19.5650   19.2680   64.3130 N.pl3  37  ARG37       0.1354
     12  N         17.3930   15.9720   61.8390 N.am   38  GLU38      -0.1979
     13  CA        17.9570   16.2650   60.5390 C.3    38  GLU38       0.1602
     14  C         16.9890   15.9200   59.4070 C.2    38  GLU38       0.2287
     15  O         17.3660   15.2350   58.4700 O.2    38  GLU38      -0.2864
     16  CB        19.2770   15.5190   60.3490 C.3    38  GLU38       0.0415
     17  CG        20.4010   15.9650   61.2700 C.3    38  GLU38       0.1163
     18  CD        20.4100   15.2770   62.6340 C.2    38  GLU38       0.3649
     19  OE1       20.0750   14.0650   62.7360 O.co2  38  GLU38      -0.2457
     20  OE2       20.7790   15.9510   63.6210 O.co2  38  GLU38      -0.2457
     21  N         16.6440   11.4220   59.5040 N.3    53  LEU53      -0.1245
     22  CA        17.4840   10.3480   59.9780 C.3    53  LEU53       0.1561
     23  C         16.8560    9.7910   61.2340 C.2    53  LEU53       0.2260
     24  O         16.8090   10.4680   62.2480 O.2    53  LEU53      -0.2867
     25  CB        18.8870   10.8360   60.2980 C.3    53  LEU53       0.0270
     26  CG        19.6880   11.3150   59.0890 C.3    53  LEU53       0.0019
     27  CD1       20.9480   11.9640   59.5640 C.3    53  LEU53       0.0001
     28  CD2       20.0060   10.1850   58.1580 C.3    53  LEU53       0.0001
     29  N         24.5470   12.0980   67.8090 N.3    70  ASP70      -0.1225
     30  CA        24.4410   12.1380   66.3550 C.3    70  ASP70       0.1805
     31  C         24.7090   10.9210   65.4900 C.2    70  ASP70       0.2597
     32  O         24.0210   10.7110   64.4990 O.2    70  ASP70      -0.2718
     33  CB        25.3330   13.2350   65.8120 C.3    70  ASP70       0.1424
     34  CG        24.8470   14.5810   66.1800 C.2    70  ASP70       0.3668
     35  OD1       23.6540   14.8740   65.9360 O.co2  70  ASP70      -0.2456
     36  OD2       25.6590   15.3400   66.7360 O.co2  70  ASP70      -0.2456
     37  N         25.7450   10.1630   65.8140 N.am   71  ARG71      -0.1979
     38  CA        26.1400    9.0610   64.9600 C.3    71  ARG71       0.1597
     39  C         26.1820    7.7370   65.6760 C.2    71  ARG71       0.2287
     40  O         26.8580    7.6020   66.6730 O.2    71  ARG71      -0.2864
     41  CB        27.5280    9.3800   64.3550 C.3    71  ARG71       0.0334
     42  CG        27.6350   10.7560   63.6760 C.3    71  ARG71       0.0492
     43  CD        29.0770   11.0810   63.2700 C.3    71  ARG71       0.2205
     44  NE        29.8840   11.2530   64.4670 N.pl3  71  ARG71      -0.0865
     45  CZ        29.9720   12.3890   65.1440 C.cat  71  ARG71       0.5346
     46  NH1       29.4370   13.4940   64.6600 N.pl3  71  ARG71       0.1354
     47  NH2       30.7030   12.4460   66.2460 N.pl3  71  ARG71       0.1354
     48  N         20.9330    4.5250   63.1190 N.3    75  ARG75      -0.1245
     49  CA        20.2610    5.5650   62.3510 C.3    75  ARG75       0.1563
     50  C         20.1540    5.1200   60.9210 C.2    75  ARG75       0.2260
     51  O         20.9590    4.3160   60.4590 O.2    75  ARG75      -0.2867
     52  CB        21.0420    6.8830   62.4020 C.3    75  ARG75       0.0307
     53  CG        21.2940    7.4040   63.8130 C.3    75  ARG75       0.0489
     54  CD        21.5490    8.8890   63.7860 C.3    75  ARG75       0.2205
     55  NE        20.3090    9.6450   63.7040 N.pl3  75  ARG75      -0.0865
     56  CZ        20.2390   10.9690   63.8270 C.cat  75  ARG75       0.5346
     57  NH1       21.3310   11.6840   64.0090 N.pl3  75  ARG75       0.1354
     58  NH2       19.0760   11.5870   63.7530 N.pl3  75  ARG75       0.1354
     59  N         24.2870    8.1530   59.2280 N.3    98  TRP98      -0.1227
     60  CA        24.0440    9.2820   60.1240 C.3    98  TRP98       0.1737
     61  C         24.1990   10.6740   59.4910 C.2    98  TRP98       0.2596
     62  O         24.2060   11.6890   60.2010 O.2    98  TRP98      -0.2718
     63  CB        24.8590    9.1560   61.4120 C.3    98  TRP98       0.0564
     64  CG        26.2640    8.6450   61.2400 C.ar   98  TRP98       0.0003
     65  CD1       26.7520    7.4390   61.6660 C.ar   98  TRP98       0.0946
     66  CD2       27.3580    9.3250   60.6080 C.ar   98  TRP98       0.0152
     67  NE1       28.0860    7.3280   61.3380 N.ar   98  TRP98      -0.2442
     68  CE2       28.4850    8.4620   60.6810 C.ar   98  TRP98       0.0810
     69  CE3       27.4960   10.5790   59.9780 C.ar   98  TRP98       0.0012
     70  CZ2       29.7430    8.8070   60.1450 C.ar   98  TRP98       0.0191
     71  CZ3       28.7390   10.9310   59.4400 C.ar   98  TRP98       0.0001
     72  CH2       29.8520   10.0440   59.5260 C.ar   98  TRP98       0.0015
     73  N         24.2820   10.7040   58.1550 N.am   99  SER99      -0.1952
     74  CA        24.3840   11.9300   57.3730 C.3    99  SER99       0.1924
     75  C         23.8460   11.5830   55.9930 C.2    99  SER99       0.2314
     76  O         24.0540   10.4810   55.5240 O.2    99  SER99      -0.2863
     77  CB        25.8210   12.4020   57.2630 C.3    99  SER99       0.2116
     78  OG        25.8520   13.6000   56.4990 O.3    99  SER99      -0.2180
     79  N         35.0540   12.5460   60.2290 N.3   142  ILE142     -0.1245
     80  CA        33.6150   12.5920   60.0100 C.3   142  ILE142      0.1561
     81  C         33.1460   13.0890   58.6350 C.2   142  ILE142      0.2260
     82  O         32.6900   14.2300   58.4880 O.2   142  ILE142     -0.2867
     83  CB        32.9010   13.3740   61.1670 C.3   142  ILE142      0.0252
     84  CG1       33.3280   12.8090   62.5350 C.3   142  ILE142      0.0019
     85  CG2       31.3960   13.2840   61.0380 C.3   142  ILE142      0.0019
     86  CD1       32.8070   13.5890   63.7240 C.3   142  ILE142      0.0001
     87  N         30.8810   13.9700   55.9290 N.3   144  ARG144     -0.1245
     88  CA        29.5010   14.3760   56.1080 C.3   144  ARG144      0.1563
     89  C         28.9610   15.1120   54.8950 C.2   144  ARG144      0.2260
     90  O         29.7160   15.4470   53.9930 O.2   144  ARG144     -0.2867
     91  CB        29.4050   15.2250   57.3570 C.3   144  ARG144      0.0307
     92  CG        30.4770   16.2720   57.4420 C.3   144  ARG144      0.0489
     93  CD        30.6320   16.7500   58.8650 C.3   144  ARG144      0.2205
     94  NE        31.4970   17.9180   58.9460 N.pl3 144  ARG144     -0.0865
     95  CZ        32.8100   17.8470   59.0940 C.cat 144  ARG144      0.5346
     96  NH1       33.4000   16.6550   59.2030 N.pl3 144  ARG144      0.1354
     97  NH2       33.5320   18.9600   59.1430 N.pl3 144  ARG144      0.1354
     98  N         22.3770   17.0600   54.3870 N.3   147  GLU147     -0.1245
     99  CA        21.2620   16.9090   55.3270 C.3   147  GLU147      0.1567
    100  C         19.9660   17.5490   54.7520 C.2   147  GLU147      0.2260
    101  O         19.0910   17.9930   55.5020 O.2   147  GLU147     -0.2867
    102  CB        21.5570   17.5120   56.7060 C.3   147  GLU147      0.0388
    103  CG        22.8900   17.1850   57.3290 C.3   147  GLU147      0.1160
    104  CD        23.1170   15.6970   57.5390 C.2   147  GLU147      0.3649
    105  OE1       22.2410   14.8780   57.1890 O.co2 147  GLU147     -0.2457
    106  OE2       24.2180   15.3420   58.0370 O.co2 147  GLU147     -0.2457
    107  N         35.6120   20.3690   62.2520 N.3   166  ALA166     -0.1245
    108  CA        34.3870   21.1080   62.3810 C.3   166  ALA166      0.1562
    109  C         34.6960   22.5400   62.7470 C.2   166  ALA166      0.2260
    110  O         33.8650   23.4440   62.6000 O.2   166  ALA166     -0.2867
    111  CB        33.5720   20.4710   63.4890 C.3   166  ALA166      0.0290
    112  N         29.5510   23.6010   55.5320 N.3   196  GLU196     -0.1231
    113  CA        28.9010   22.4940   56.1760 C.3   196  GLU196      0.1699
    114  C         27.4530   22.5710   55.7440 C.2   196  GLU196      0.2592
    115  O         26.9740   23.6580   55.4170 O.2   196  GLU196     -0.2718
    116  CB        28.9310   22.6200   57.6960 C.3   196  GLU196      0.0402
    117  CG        30.2830   22.6400   58.3910 C.3   196  GLU196      0.1161
    118  CD        30.9130   21.2780   58.5600 C.2   196  GLU196      0.3649
    119  OE1       30.3240   20.2710   58.1110 O.co2 196  GLU196     -0.2457
    120  OE2       32.0030   21.2050   59.1730 O.co2 196  GLU196     -0.2457
    121  N         26.8040   21.4020   55.7010 N.am  197  GLU197     -0.1979
    122  CA        25.3610   21.2670   55.4320 C.3   197  GLU197      0.1602
    123  C         24.7230   22.2430   54.4670 C.2   197  GLU197      0.2287
    124  O         23.8480   23.0320   54.8470 O.2   197  GLU197     -0.2864
    125  CB        24.6250   21.3300   56.7690 C.3   197  GLU197      0.0415
    126  CG        25.1820   20.3180   57.7650 C.3   197  GLU197      0.1163
    127  CD        24.7750   20.5820   59.1790 C.2   197  GLU197      0.3649
    128  OE1       24.4640   21.7260   59.5310 O.co2 197  GLU197     -0.2457
    129  OE2       24.7980   19.6210   59.9640 O.co2 197  GLU197     -0.2457
    130  N         26.7380   26.4440   55.7570 N.3   212  ARG212     -0.1245
    131  CA        27.0140   26.8780   57.1030 C.3   212  ARG212      0.1563
    132  C         28.5080   26.8500   57.3800 C.2   212  ARG212      0.2260
    133  O         29.1500   25.8160   57.1570 O.2   212  ARG212     -0.2867
    134  CB        26.2930   25.9330   58.0670 C.3   212  ARG212      0.0307
    135  CG        26.8100   25.8700   59.4960 C.3   212  ARG212      0.0489
    136  CD        26.4070   24.5350   60.0920 C.3   212  ARG212      0.2205
    137  NE        26.9090   24.2760   61.4330 N.pl3 212  ARG212     -0.0865
    138  CZ        26.3270   23.4450   62.3010 C.cat 212  ARG212      0.5346
    139  NH1       25.1810   22.8390   61.9970 N.pl3 212  ARG212      0.1354
    140  NH2       26.8560   23.2480   63.4990 N.pl3 212  ARG212      0.1354
    141  N         30.8540   26.6580   60.1570 N.3   214  ASN214     -0.1240
    142  CA        30.8250   26.3700   61.5780 C.3   214  ASN214      0.1653
    143  C         31.9890   27.0000   62.3600 C.2   214  ASN214      0.2266
    144  O         31.9460   27.1520   63.5840 O.2   214  ASN214     -0.2867
    145  CB        30.8340   24.8620   61.7740 C.3   214  ASN214      0.1155
    146  CG        30.4140   24.4700   63.1620 C.2   214  ASN214      0.2627
    147  OD1       29.1420   24.6780   63.4650 O.2   214  ASN214     -0.2716
    148  ND2       31.2280   24.0040   63.9710 N.am  214  ASN214     -0.0877
    149  N         18.5120   28.0850   69.1720 N.3   290  ARG290     -0.1245
    150  CA        17.6830   27.6480   68.0520 C.3   290  ARG290      0.1563
    151  C         16.2400   27.8110   68.4820 C.2   290  ARG290      0.2260
    152  O         15.5320   26.8480   68.7680 O.2   290  ARG290     -0.2867
    153  CB        17.9970   26.1960   67.7460 C.3   290  ARG290      0.0307
    154  CG        19.4010   25.9810   67.2590 C.3   290  ARG290      0.0489
    155  CD        19.6900   24.5290   67.1190 C.3   290  ARG290      0.2205
    156  NE        21.0090   24.3710   66.5270 N.pl3 290  ARG290     -0.0865
    157  CZ        21.6080   23.2080   66.3070 C.cat 290  ARG290      0.5346
    158  NH1       21.0090   22.0660   66.6500 N.pl3 290  ARG290      0.1354
    159  NH2       22.8110   23.1930   65.7580 N.pl3 290  ARG290      0.1354
    160  N         17.2160   22.9280   62.4040 N.3   324  TYR324     -0.1241
    161  CA        17.6310   22.9500   61.0150 C.3   324  TYR324      0.1605
    162  C         16.5280   23.4590   60.0810 C.2   324  TYR324      0.2264
    163  O         15.3430   23.4220   60.4120 O.2   324  TYR324     -0.2867
    164  CB        18.0650   21.5460   60.6200 C.3   324  TYR324      0.0534
    165  CG        19.4300   21.1760   61.1400 C.ar  324  TYR324     -0.0201
    166  CD1       20.0620   21.9560   62.1160 C.ar  324  TYR324     -0.0009
    167  CD2       20.1480   20.1210   60.5780 C.ar  324  TYR324     -0.0009
    168  CE1       21.3940   21.7040   62.5120 C.ar  324  TYR324      0.0417
    169  CE2       21.4710   19.8570   60.9630 C.ar  324  TYR324      0.0417
    170  CZ        22.0880   20.6570   61.9270 C.ar  324  TYR324      0.1957
    171  OH        23.4010   20.4350   62.2650 O.3   324  TYR324     -0.2866
@<TRIPOS>BOND
     1    90    89    2
     2    98    99    1
     3   123   124    2
     4   123   122    1
     5   100    99    1
     6   100   101    2
     7    89    88    1
     8    99   102    1
     9   115   114    2
    10   122   121    1
    11   122   125    1
    12    76    75    2
    13   112   113    1
    14   121   114   am
    15   114   113    1
    16   130   131    1
    17    87    88    1
    18    75    74    1
    19    88    91    1
    20   113   116    1
    21    78    77    1
    22   102   103    1
    23   125   126    1
    24   131   132    1
    25   131   134    1
    26   133   132    2
    27   105   104   ar
    28    77    74    1
    29   103   104    1
    30    91    92    1
    31    74    73    1
    32    92    93    1
    33   104   106   ar
    34   116   117    1
    35   126   127    1
    36   134   135    1
    37   119   118   ar
    38    73    61   am
    39    28    26    1
    40   117   118    1
    41    15    14    2
    42    82    81    2
    43   118   120   ar
    44    81    80    1
    45    93    94    1
    46    94    95    2
    47    26    27    1
    48    26    25    1
    49    95    97    1
    50    95    96    1
    51   127   128   ar
    52   127   129   ar
    53    59    60    1
    54    14    13    1
    55    71    72   ar
    56    71    69   ar
    57    61    60    1
    58    61    62    2
    59   135   136    1
    60    21    22    1
    61    72    70   ar
    62    22    25    1
    63    22    23    1
    64    69    66   ar
    65    80    79    1
    66    80    83    1
    67   162   163    2
    68   162   161    1
    69   136   137    1
    70    60    63    1
    71    70    68   ar
    72   141   142    1
    73    16    13    1
    74    16    17    1
    75    51    50    2
    76    13    12    1
    77   167   169   ar
    78   167   165   ar
    79    66    68   ar
    80    66    64   ar
    81   164   161    1
    82   164   165    1
    83    68    67   ar
    84    50    49    1
    85   169   170   ar
    86   161   160    1
    87    85    83    1
    88   165   166   ar
    89    83    84    1
    90    23    24    2
    91    64    63    1
    92    64    65   ar
    93    17    18    1
    94    67    65   ar
    95     4     3    2
    96   137   138    2
    97   142   145    1
    98   142   143    1
    99   145   146    1
   100    12     3   am
   101   170   171    1
   102   170   168   ar
   103   139   138    1
   104   166   168   ar
   105     3     2    1
   106   107   108    1
   107   138   140    1
   108    49    52    1
   109    49    48    1
   110   143   144    2
   111   108   109    1
   112   108   111    1
   113    52    53    1
   114    84    86    1
   115   110   109    2
   116    18    19   ar
   117    18    20   ar
   118   146   147    2
   119   146   148   am
   120    43    42    1
   121    43    44    1
   122     2     1    1
   123     2     5    1
   124    42    41    1
   125    55    54    1
   126    55    56    2
   127    58    56    1
   128    54    53    1
   129    56    57    1
   130    11     9    1
   131    41    38    1
   132    44    45    2
   133    32    31    2
   134     5     6    1
   135    46    45    1
   136    38    39    1
   137    38    37    1
   138    45    47    1
   139     9     8    2
   140     9    10    1
   141     8     7    1
   142    31    37   am
   143    31    30    1
   144    39    40    2
   145   159   157    1
   146     6     7    1
   147    33    34    1
   148    33    30    1
   149    35    34   ar
   150    34    36   ar
   151   157   156    2
   152   157   158    1
   153    30    29    1
   154   156   155    1
   155   155   154    1
   156   154   153    1
   157   153   150    1
   158   150   151    1
   159   150   149    1
   160   151   152    2
