@<TRIPOS>MOLECULE
tmp/2qwjA01.pdb
 163 153 0 0 0
SMALL
GASTEIGER

@<TRIPOS>ATOM
      1  N         15.5780   13.2080   63.0980 N.3    37  ARG37      -0.1231
      2  CA        16.2480   14.5020   63.0410 C.3    37  ARG37       0.1694
      3  C         16.8430   14.6350   61.6190 C.2    37  ARG37       0.2591
      4  O         16.8160   13.6850   60.8190 O.2    37  ARG37      -0.2718
      5  CB        17.3100   14.7080   64.1290 C.3    37  ARG37       0.0321
      6  CG        16.8140   15.5540   65.3160 C.3    37  ARG37       0.0489
      7  CD        17.9200   16.4740   65.8200 C.3    37  ARG37       0.2205
      8  NE        18.1660   17.5660   64.8960 N.pl3  37  ARG37      -0.0865
      9  CZ        19.3170   18.2100   64.7830 C.cat  37  ARG37       0.5346
     10  NH1       20.3290   17.9030   65.5870 N.pl3  37  ARG37       0.1354
     11  NH2       19.4420   19.2000   63.8960 N.pl3  37  ARG37       0.1354
     12  N         17.3120   15.8440   61.3070 N.am   38  GLU38      -0.1979
     13  CA        17.8930   16.1530   60.0200 C.3    38  GLU38       0.1602
     14  C         16.8980   15.8080   58.9070 C.2    38  GLU38       0.2287
     15  O         17.2020   15.0220   58.0040 O.2    38  GLU38      -0.2864
     16  CB        19.2170   15.4000   59.8430 C.3    38  GLU38       0.0415
     17  CG        20.2930   15.8090   60.8500 C.3    38  GLU38       0.1163
     18  CD        20.2420   15.0760   62.1990 C.2    38  GLU38       0.3649
     19  OE1       19.8140   13.9000   62.2990 O.co2  38  GLU38      -0.2457
     20  OE2       20.6800   15.6760   63.1830 O.co2  38  GLU38      -0.2457
     21  N         24.3310   11.9620   67.3900 N.3    70  ASP70      -0.1225
     22  CA        24.2320   12.0390   65.9440 C.3    70  ASP70       0.1805
     23  C         24.4730   10.8330   65.0560 C.2    70  ASP70       0.2597
     24  O         23.8370   10.6800   64.0180 O.2    70  ASP70      -0.2718
     25  CB        25.1740   13.1150   65.4550 C.3    70  ASP70       0.1424
     26  CG        24.8820   14.4390   66.0660 C.2    70  ASP70       0.3668
     27  OD1       23.9030   15.0990   65.6500 O.co2  70  ASP70      -0.2456
     28  OD2       25.6290   14.8380   66.9850 O.co2  70  ASP70      -0.2456
     29  N         25.4640   10.0330   65.4050 N.am   71  ARG71      -0.1979
     30  CA        25.8730    8.9320   64.5490 C.3    71  ARG71       0.1597
     31  C         25.9100    7.6050   65.2640 C.2    71  ARG71       0.2287
     32  O         26.7020    7.4300   66.1780 O.2    71  ARG71      -0.2864
     33  CB        27.2870    9.2430   64.0170 C.3    71  ARG71       0.0334
     34  CG        27.4560   10.5800   63.2940 C.3    71  ARG71       0.0492
     35  CD        28.9340   10.8560   62.9420 C.3    71  ARG71       0.2205
     36  NE        29.7000   11.1250   64.1490 N.pl3  71  ARG71      -0.0865
     37  CZ        29.6420   12.2700   64.8330 C.cat  71  ARG71       0.5346
     38  NH1       28.9110   13.2790   64.3930 N.pl3  71  ARG71       0.1354
     39  NH2       30.3450   12.4250   65.9420 N.pl3  71  ARG71       0.1354
     40  N         20.8350    4.3270   62.6130 N.3    75  ARG75      -0.1245
     41  CA        20.2260    5.3720   61.8260 C.3    75  ARG75       0.1563
     42  C         20.0900    4.9610   60.3780 C.2    75  ARG75       0.2260
     43  O         20.8380    4.0920   59.8690 O.2    75  ARG75      -0.2867
     44  CB        21.0610    6.6500   61.9140 C.3    75  ARG75       0.0307
     45  CG        21.1990    7.2110   63.3230 C.3    75  ARG75       0.0489
     46  CD        21.4550    8.7130   63.2730 C.3    75  ARG75       0.2205
     47  NE        20.2100    9.4800   63.1510 N.pl3  75  ARG75      -0.0865
     48  CZ        20.1340   10.7970   63.3440 C.cat  75  ARG75       0.5346
     49  NH1       21.2250   11.4790   63.6870 N.pl3  75  ARG75       0.1354
     50  NH2       18.9680   11.4140   63.2290 N.pl3  75  ARG75       0.1354
     51  N         24.1370    7.9560   58.8000 N.3    98  TRP98      -0.1227
     52  CA        23.8620    9.0780   59.6770 C.3    98  TRP98       0.1737
     53  C         24.0130   10.4380   59.0480 C.2    98  TRP98       0.2596
     54  O         24.0340   11.4210   59.7490 O.2    98  TRP98      -0.2718
     55  CB        24.7190    8.9940   60.9370 C.3    98  TRP98       0.0564
     56  CG        26.1240    8.4570   60.7370 C.ar   98  TRP98       0.0003
     57  CD1       26.6160    7.2450   61.1830 C.ar   98  TRP98       0.0946
     58  CD2       27.2280    9.1390   60.1230 C.ar   98  TRP98       0.0152
     59  NE1       27.9650    7.1490   60.8960 N.ar   98  TRP98      -0.2442
     60  CE2       28.3650    8.2860   60.2450 C.ar   98  TRP98       0.0810
     61  CE3       27.3760   10.3840   59.4800 C.ar   98  TRP98       0.0012
     62  CZ2       29.6310    8.6510   59.7410 C.ar   98  TRP98       0.0191
     63  CZ3       28.6300   10.7430   58.9830 C.ar   98  TRP98       0.0001
     64  CH2       29.7370    9.8780   59.1180 C.ar   98  TRP98       0.0015
     65  N         24.1480   10.4810   57.7250 N.am   99  SER99      -0.1952
     66  CA        24.2640   11.7230   56.9640 C.3    99  SER99       0.1924
     67  C         23.7800   11.3700   55.5660 C.2    99  SER99       0.2314
     68  O         24.1140   10.2880   55.0630 O.2    99  SER99      -0.2863
     69  CB        25.7100   12.2550   56.9200 C.3    99  SER99       0.2116
     70  OG        25.7790   13.4430   56.1260 O.3    99  SER99      -0.2180
     71  N         34.7330   12.3030   59.9860 N.3   142  ILE142     -0.1245
     72  CA        33.3070   12.4440   59.7540 C.3   142  ILE142      0.1561
     73  C         32.9020   12.9530   58.3480 C.2   142  ILE142      0.2260
     74  O         32.5390   14.1200   58.1820 O.2   142  ILE142     -0.2867
     75  CB        32.6480   13.3480   60.8370 C.3   142  ILE142      0.0252
     76  CG1       33.0440   12.8690   62.2450 C.3   142  ILE142      0.0019
     77  CG2       31.1370   13.3230   60.6910 C.3   142  ILE142      0.0019
     78  CD1       32.5410   13.7680   63.3700 C.3   142  ILE142      0.0001
     79  N         30.6570   13.7300   55.5360 N.3   144  ARG144     -0.1245
     80  CA        29.2640   14.1200   55.7160 C.3   144  ARG144      0.1563
     81  C         28.6940   14.8720   54.4900 C.2   144  ARG144      0.2260
     82  O         29.4630   15.3770   53.6790 O.2   144  ARG144     -0.2867
     83  CB        29.2050   15.0000   56.9730 C.3   144  ARG144      0.0307
     84  CG        30.2400   16.1610   57.0110 C.3   144  ARG144      0.0489
     85  CD        30.4900   16.6190   58.4500 C.3   144  ARG144      0.2205
     86  NE        31.3180   17.8190   58.5870 N.pl3 144  ARG144     -0.0865
     87  CZ        32.6300   17.7990   58.7710 C.cat 144  ARG144      0.5346
     88  NH1       33.2790   16.6380   58.7910 N.pl3 144  ARG144      0.1354
     89  NH2       33.3010   18.9360   58.9170 N.pl3 144  ARG144      0.1354
     90  N         22.1790   16.9110   53.9700 N.3   147  GLU147     -0.1245
     91  CA        21.0810   16.7010   54.9210 C.3   147  GLU147      0.1567
     92  C         19.8150   17.3230   54.3540 C.2   147  GLU147      0.2260
     93  O         18.9210   17.7140   55.1100 O.2   147  GLU147     -0.2867
     94  CB        21.3720   17.2830   56.3310 C.3   147  GLU147      0.0388
     95  CG        22.7350   16.9120   56.9760 C.3   147  GLU147      0.1160
     96  CD        22.9780   15.4080   57.0720 C.2   147  GLU147      0.3649
     97  OE1       22.0970   14.5930   56.6810 O.co2 147  GLU147     -0.2457
     98  OE2       24.0580   15.0150   57.5690 O.co2 147  GLU147     -0.2457
     99  N         35.3820   20.4380   61.8680 N.3   166  ALA166     -0.1245
    100  CA        34.1960   21.2930   61.8450 C.3   166  ALA166      0.1562
    101  C         34.5080   22.6310   62.5250 C.2   166  ALA166      0.2260
    102  O         33.6620   23.5280   62.6070 O.2   166  ALA166     -0.2867
    103  CB        33.0280   20.6080   62.5410 C.3   166  ALA166      0.0290
    104  N         29.3520   23.3750   55.3230 N.3   196  GLU196     -0.1231
    105  CA        28.6580   22.3170   56.0410 C.3   196  GLU196      0.1699
    106  C         27.2130   22.3420   55.5780 C.2   196  GLU196      0.2592
    107  O         26.6950   23.4170   55.2620 O.2   196  GLU196     -0.2718
    108  CB        28.6020   22.5690   57.5520 C.3   196  GLU196      0.0402
    109  CG        29.9240   22.5800   58.2880 C.3   196  GLU196      0.1161
    110  CD        30.4900   21.1720   58.5240 C.2   196  GLU196      0.3649
    111  OE1       29.8720   20.1570   58.0760 O.co2 196  GLU196     -0.2457
    112  OE2       31.5780   21.0720   59.1740 O.co2 196  GLU196     -0.2457
    113  N         26.6170   21.1570   55.4560 N.am  197  GLU197     -0.1979
    114  CA        25.2140   20.9840   55.1250 C.3   197  GLU197      0.1602
    115  C         24.5690   21.9420   54.1280 C.2   197  GLU197      0.2287
    116  O         23.6860   22.7290   54.5190 O.2   197  GLU197     -0.2864
    117  CB        24.4350   21.0440   56.4310 C.3   197  GLU197      0.0415
    118  CG        25.0370   20.1710   57.5340 C.3   197  GLU197      0.1163
    119  CD        24.5520   20.5170   58.9300 C.2   197  GLU197      0.3649
    120  OE1       24.3470   21.7040   59.2650 O.co2 197  GLU197     -0.2457
    121  OE2       24.4210   19.5890   59.7240 O.co2 197  GLU197     -0.2457
    122  N         26.5370   26.2240   55.5280 N.3   212  ARG212     -0.1245
    123  CA        26.8420   26.6060   56.8980 C.3   212  ARG212      0.1563
    124  C         28.3550   26.6620   57.1650 C.2   212  ARG212      0.2260
    125  O         29.0680   25.6610   56.9770 O.2   212  ARG212     -0.2867
    126  CB        26.1720   25.5680   57.8370 C.3   212  ARG212      0.0307
    127  CG        26.6670   25.4600   59.2850 C.3   212  ARG212      0.0489
    128  CD        26.0230   24.2770   59.9940 C.3   212  ARG212      0.2205
    129  NE        26.6050   24.0370   61.2980 N.pl3 212  ARG212     -0.0865
    130  CZ        26.0840   23.2340   62.2300 C.cat 212  ARG212      0.5346
    131  NH1       24.9150   22.6370   62.0370 N.pl3 212  ARG212      0.1354
    132  NH2       26.7100   23.0850   63.3960 N.pl3 212  ARG212      0.1354
    133  N         30.6480   26.5250   59.7160 N.3   214  ASN214     -0.1240
    134  CA        30.6470   26.2190   61.1180 C.3   214  ASN214      0.1653
    135  C         31.8100   26.8070   61.8760 C.2   214  ASN214      0.2266
    136  O         31.6820   27.1700   63.0550 O.2   214  ASN214     -0.2867
    137  CB        30.6090   24.7270   61.3100 C.3   214  ASN214      0.1155
    138  CG        30.2980   24.3490   62.7050 C.2   214  ASN214      0.2627
    139  OD1       31.1910   23.9930   63.4750 O.2   214  ASN214     -0.2716
    140  ND2       29.0420   24.4400   63.0620 N.am  214  ASN214     -0.0877
    141  N         18.3090   27.8820   68.6200 N.3   290  ARG290     -0.1245
    142  CA        17.4110   27.4340   67.5450 C.3   290  ARG290      0.1563
    143  C         16.0240   27.6260   68.0640 C.2   290  ARG290      0.2260
    144  O         15.3390   26.6870   68.4700 O.2   290  ARG290     -0.2867
    145  CB        17.6700   25.9740   67.2080 C.3   290  ARG290      0.0307
    146  CG        19.0820   25.7530   66.7480 C.3   290  ARG290      0.0489
    147  CD        19.5560   24.3270   66.8250 C.3   290  ARG290      0.2205
    148  NE        20.8750   24.2590   66.2390 N.pl3 290  ARG290     -0.0865
    149  CZ        21.5040   23.1380   65.9300 C.cat 290  ARG290      0.5346
    150  NH1       20.9750   21.9770   66.2510 N.pl3 290  ARG290      0.1354
    151  NH2       22.7100   23.1870   65.3680 N.pl3 290  ARG290      0.1354
    152  N         17.0050   22.9050   61.9700 N.3   324  TYR324     -0.1241
    153  CA        17.4490   22.9280   60.5760 C.3   324  TYR324      0.1605
    154  C         16.3860   23.4150   59.6140 C.2   324  TYR324      0.2264
    155  O         15.1970   23.3280   59.8920 O.2   324  TYR324     -0.2867
    156  CB        17.8890   21.5390   60.1260 C.3   324  TYR324      0.0534
    157  CG        19.2350   21.1230   60.6400 C.ar  324  TYR324     -0.0201
    158  CD1       19.8550   21.8190   61.6860 C.ar  324  TYR324     -0.0009
    159  CD2       19.9320   20.0590   60.0510 C.ar  324  TYR324     -0.0009
    160  CE1       21.1420   21.4750   62.1160 C.ar  324  TYR324      0.0417
    161  CE2       21.2220   19.7050   60.4800 C.ar  324  TYR324      0.0417
    162  CZ        21.8120   20.4170   61.4990 C.ar  324  TYR324      0.1957
    163  OH        23.0930   20.1150   61.8730 O.3   324  TYR324     -0.2866
@<TRIPOS>BOND
     1    82    81    2
     2    90    91    1
     3   115   116    2
     4   115   114    1
     5    92    91    1
     6    92    93    2
     7    81    80    1
     8    91    94    1
     9    68    67    2
    10   114   113    1
    11   114   117    1
    12   107   106    2
    13   104   105    1
    14   113   106   am
    15   122   123    1
    16    79    80    1
    17    67    66    1
    18   106   105    1
    19    80    83    1
    20   105   108    1
    21    70    69    1
    22    94    95    1
    23   117   118    1
    24    97    96   ar
    25   123   124    1
    26   123   126    1
    27    69    66    1
    28    66    65    1
    29    83    84    1
    30    95    96    1
    31   125   124    2
    32    84    85    1
    33    96    98   ar
    34   118   119    1
    35   108   109    1
    36    65    53   am
    37   126   127    1
    38    15    14    2
    39   111   110   ar
    40    74    73    2
    41   109   110    1
    42    73    72    1
    43    85    86    1
    44   110   112   ar
    45    86    87    2
    46    87    88    1
    47    87    89    1
    48    51    52    1
    49    14    13    1
    50   119   120   ar
    51   119   121   ar
    52    63    64   ar
    53    63    61   ar
    54    53    52    1
    55    53    54    2
    56    64    62   ar
    57   127   128    1
    58    61    58   ar
    59   154   155    2
    60   154   153    1
    61    52    55    1
    62   133   134    1
    63    62    60   ar
    64    72    71    1
    65    72    75    1
    66    16    13    1
    67    16    17    1
    68    43    42    2
    69   128   129    1
    70    13    12    1
    71   159   161   ar
    72   159   157   ar
    73    58    60   ar
    74    58    56   ar
    75   156   153    1
    76   156   157    1
    77    60    59   ar
    78    42    41    1
    79   161   162   ar
    80   153   152    1
    81   157   158   ar
    82    77    75    1
    83    56    55    1
    84    56    57   ar
    85     4     3    2
    86    75    76    1
    87    17    18    1
    88    59    57   ar
    89   134   137    1
    90   134   135    1
    91   129   130    2
    92    12     3   am
    93   137   138    1
    94   162   163    1
    95   162   160   ar
    96     3     2    1
    97   158   160   ar
    98    41    44    1
    99    41    40    1
   100   100    99    1
   101   100   101    1
   102   100   103    1
   103   135   136    2
   104    44    45    1
   105   131   130    1
   106    18    19   ar
   107    18    20   ar
   108   130   132    1
   109    76    78    1
   110   101   102    2
   111   138   140   am
   112   138   139    2
   113    35    34    1
   114    35    36    1
   115     2     1    1
   116     2     5    1
   117    47    46    1
   118    47    48    2
   119    50    48    1
   120    46    45    1
   121    34    33    1
   122    48    49    1
   123    11     9    1
   124    33    30    1
   125    24    23    2
   126     5     6    1
   127    36    37    2
   128    38    37    1
   129    30    31    1
   130    30    29    1
   131     9     8    2
   132     9    10    1
   133    37    39    1
   134     8     7    1
   135    23    29   am
   136    23    22    1
   137    31    32    2
   138     6     7    1
   139   151   149    1
   140    25    22    1
   141    25    26    1
   142    27    26   ar
   143   149   148    2
   144   149   150    1
   145    22    21    1
   146    26    28   ar
   147   148   147    1
   148   146   147    1
   149   146   145    1
   150   145   142    1
   151   142   143    1
   152   142   141    1
   153   143   144    2
