@<TRIPOS>MOLECULE
tmp/2qx0A00.pdb
 147 140 0 0 0
SMALL
GASTEIGER

@<TRIPOS>ATOM
      1  N          0.2330  -11.9850    4.9910 N.3    70  LEU70      -0.1245
      2  CA         0.8190  -11.1180    6.0110 C.3    70  LEU70       0.1561
      3  C          2.1480  -11.6940    6.5250 C.2    70  LEU70       0.2260
      4  O          3.1240  -10.9580    6.7040 O.2    70  LEU70      -0.2867
      5  CB        -0.1590  -10.9310    7.1810 C.3    70  LEU70       0.0270
      6  CG         0.3420  -10.0250    8.3170 C.3    70  LEU70       0.0019
      7  CD1        0.4330   -8.5880    7.8120 C.3    70  LEU70       0.0001
      8  CD2       -0.5840  -10.1080    9.5270 C.3    70  LEU70       0.0001
      9  N          5.5530   -9.4470    6.0890 N.3    74  GLN74      -0.1245
     10  CA         6.3310   -9.1310    7.2880 C.3    74  GLN74       0.1566
     11  C          7.7160   -9.7560    7.1770 C.2    74  GLN74       0.2260
     12  O          8.7030   -9.1790    7.6360 O.2    74  GLN74      -0.2867
     13  CB         5.6270   -9.6330    8.5600 C.3    74  GLN74       0.0367
     14  CG         4.2440   -9.0120    8.7740 C.3    74  GLN74       0.0905
     15  CD         3.6210   -9.3450   10.1210 C.2    74  GLN74       0.2608
     16  OE1        3.7760  -10.4530   10.6380 O.2    74  GLN74      -0.2717
     17  NE2        2.8830   -8.3830   10.6870 N.am   74  GLN74      -0.0878
     18  N          9.6830   -7.3410    5.1450 N.3    77  GLU77      -0.1245
     19  CA        10.0320   -6.1570    5.9380 C.3    77  GLU77       0.1567
     20  C         11.1770   -6.5340    6.8700 C.2    77  GLU77       0.2260
     21  O         12.1910   -5.8400    6.9420 O.2    77  GLU77      -0.2867
     22  CB         8.8550   -5.6920    6.8100 C.3    77  GLU77       0.0388
     23  CG         7.5660   -5.3510    6.0810 C.3    77  GLU77       0.1160
     24  CD         6.4570   -4.9350    7.0450 C.2    77  GLU77       0.3649
     25  OE1        6.1780   -5.6900    8.0020 O.co2  77  GLU77      -0.2457
     26  OE2        5.8600   -3.8610    6.8510 O.co2  77  GLU77      -0.2457
     27  N         13.4100    1.2720   15.8780 N.3    88  ARG88      -0.1245
     28  CA        11.9690    1.5110   15.7980 C.3    88  ARG88       0.1563
     29  C         11.6070    2.9950   15.7230 C.2    88  ARG88       0.2260
     30  O         10.7340    3.3890   14.9500 O.2    88  ARG88      -0.2867
     31  CB        11.2570    0.8670   16.9960 C.3    88  ARG88       0.0307
     32  CG         9.7650    1.1890   17.0890 C.3    88  ARG88       0.0489
     33  CD         9.0840    0.3340   18.1520 C.3    88  ARG88       0.2205
     34  NE         8.8910   -1.0410   17.7010 N.pl3  88  ARG88      -0.0865
     35  CZ         7.9030   -1.4290   16.8990 C.cat  88  ARG88       0.5346
     36  NH1        7.0190   -0.5450   16.4650 N.pl3  88  ARG88       0.1354
     37  NH2        7.7890   -2.7000   16.5440 N.pl3  88  ARG88       0.1354
     38  N         12.0000    4.6010    8.7390 N.3    92  ARG92      -0.1245
     39  CA        11.4540    3.2780    8.4590 C.3    92  ARG92       0.1563
     40  C         12.1040    2.6830    7.2150 C.2    92  ARG92       0.2260
     41  O         12.0770    3.2910    6.1480 O.2    92  ARG92      -0.2867
     42  CB         9.9390    3.3860    8.2610 C.3    92  ARG92       0.0307
     43  CG         9.2220    2.0600    8.0490 C.3    92  ARG92       0.0489
     44  CD         9.3980    1.1280    9.2310 C.3    92  ARG92       0.2205
     45  NE         8.6620   -0.1230    9.0490 N.pl3  92  ARG92      -0.0865
     46  CZ         7.3700   -0.2760    9.3240 C.cat  92  ARG92       0.5346
     47  NH1        6.6640    0.7430    9.7980 N.pl3  92  ARG92       0.1354
     48  NH2        6.7830   -1.4480    9.1320 N.pl3  92  ARG92       0.1354
     49  N          7.9300   -0.5620    4.9300 N.3    95  ASP95      -0.1225
     50  CA         6.6420   -0.8710    5.5410 C.3    95  ASP95       0.1805
     51  C          5.7040   -1.3440    4.4260 C.2    95  ASP95       0.2598
     52  O          5.5160   -0.6450    3.4360 O.2    95  ASP95      -0.2718
     53  CB         6.0810    0.3820    6.2300 C.3    95  ASP95       0.1424
     54  CG         4.6870    0.1730    6.7950 C.2    95  ASP95       0.3668
     55  OD1        4.4850   -0.7960    7.5610 O.co2  95  ASP95      -0.2456
     56  OD2        3.7980    0.9930    6.4730 O.co2  95  ASP95      -0.2456
     57  N          5.1500   -2.5460    4.5790 N.am   96  LEU96      -0.1966
     58  CA         4.2440   -3.1070    3.5770 C.3    96  LEU96       0.1728
     59  C          2.8550   -3.2750    4.1890 C.2    96  LEU96       0.2616
     60  O          2.6220   -4.1600    5.0190 O.2    96  LEU96      -0.2715
     61  CB         4.7650   -4.4610    3.0890 C.3    96  LEU96       0.0311
     62  CG         6.1630   -4.4820    2.4480 C.3    96  LEU96       0.0022
     63  CD1        6.5230   -5.9160    2.1120 C.3    96  LEU96       0.0001
     64  CD2        6.1830   -3.6290    1.1790 C.3    96  LEU96       0.0001
     65  N          1.9320   -2.4170    3.7890 N.am   97  ASP97      -0.1957
     66  CA         0.5850   -2.4920    4.3300 C.3    97  ASP97       0.1840
     67  C         -0.3610   -3.1160    3.3200 C.2    97  ASP97       0.2621
     68  O         -0.3800   -2.7120    2.1570 O.2    97  ASP97      -0.2715
     69  CB         0.0850   -1.0980    4.7140 C.3    97  ASP97       0.1450
     70  CG         0.8570   -0.4920    5.8660 C.2    97  ASP97       0.3671
     71  OD1        1.6770   -1.2120    6.4750 O.co2  97  ASP97      -0.2456
     72  OD2        0.6310    0.7010    6.1730 O.co2  97  ASP97      -0.2456
     73  N         -1.1260   -4.1170    3.7500 N.am   98  ILE98      -0.1977
     74  CA        -2.0780   -4.7420    2.8380 C.3    98  ILE98       0.1596
     75  C         -3.2240   -3.7550    2.8130 C.2    98  ILE98       0.2287
     76  O         -3.9080   -3.5490    3.8170 O.2    98  ILE98      -0.2864
     77  CB        -2.5620   -6.1130    3.3490 C.3    98  ILE98       0.0276
     78  CG1       -1.3630   -7.0480    3.5340 C.3    98  ILE98       0.0022
     79  CG2       -3.5340   -6.7170    2.3470 C.3    98  ILE98       0.0022
     80  CD1       -1.6980   -8.3730    4.2110 C.3    98  ILE98       0.0001
     81  N         -4.6820   -9.9240   14.0590 N.3   110  ARG110     -0.1231
     82  CA        -3.4810   -9.3970   13.4090 C.3   110  ARG110      0.1694
     83  C         -3.7720   -8.5480   12.1780 C.2   110  ARG110      0.2592
     84  O         -2.8790   -7.8740   11.6640 O.2   110  ARG110     -0.2718
     85  CB        -2.5640  -10.5490   12.9690 C.3   110  ARG110      0.0321
     86  CG        -2.0880  -11.5020   14.0680 C.3   110  ARG110      0.0489
     87  CD        -1.2370  -12.6330   13.4720 C.3   110  ARG110      0.2205
     88  NE        -0.0450  -12.1190   12.7930 N.pl3 110  ARG110     -0.0865
     89  CZ         0.6740  -12.8000   11.9050 C.cat 110  ARG110      0.5346
     90  NH1        0.3280  -14.0420   11.5810 N.pl3 110  ARG110      0.1354
     91  NH2        1.7160  -12.2260   11.3110 N.pl3 110  ARG110      0.1354
     92  N         -5.0140   -8.5690   11.7110 N.am  111  LEU111     -0.1966
     93  CA        -5.3570   -7.8480   10.4900 C.3   111  LEU111      0.1728
     94  C         -6.6330   -7.0190   10.5000 C.2   111  LEU111      0.2617
     95  O         -7.6120   -7.3580   11.1650 O.2   111  LEU111     -0.2715
     96  CB        -5.4830   -8.8760    9.3550 C.3   111  LEU111      0.0311
     97  CG        -4.6410   -8.8900    8.0770 C.3   111  LEU111      0.0022
     98  CD1       -3.2430   -8.3600    8.3160 C.3   111  LEU111      0.0001
     99  CD2       -4.6210  -10.3260    7.5510 C.3   111  LEU111      0.0001
    100  N         -6.5990   -5.9260    9.7460 N.am  112  THR112     -0.1937
    101  CA        -7.7720   -5.0940    9.5130 C.3   112  THR112      0.2028
    102  C         -7.5780   -4.6190    8.0650 C.2   112  THR112      0.2642
    103  O         -6.6480   -3.8760    7.7500 O.2   112  THR112     -0.2714
    104  CB        -7.9180   -3.9050   10.4970 C.3   112  THR112      0.1808
    105  OG1       -9.1720   -3.2570   10.2410 O.3   112  THR112     -0.2208
    106  CG2       -6.7870   -2.8880   10.3270 C.3   112  THR112      0.0379
    107  N         -8.4260   -5.1230    7.1790 N.am  113  ILE113     -0.1977
    108  CA        -8.3670   -4.8070    5.7510 C.3   113  ILE113      0.1596
    109  C         -9.7990   -4.5400    5.3250 C.2   113  ILE113      0.2287
    110  O        -10.6920   -5.3180    5.6490 O.2   113  ILE113     -0.2864
    111  CB        -7.8440   -6.0190    4.9260 C.3   113  ILE113      0.0276
    112  CG1       -6.4670   -6.4490    5.4320 C.3   113  ILE113      0.0022
    113  CG2       -7.7730   -5.6570    3.4380 C.3   113  ILE113      0.0022
    114  CD1       -5.9730   -7.7450    4.8010 C.3   113  ILE113      0.0001
    115  N         -7.0430   -1.3740    4.9030 N.3   115  HIS115     -0.1226
    116  CA        -6.1880   -0.7160    5.8840 C.3   115  HIS115      0.1752
    117  C         -7.0130    0.4350    6.4620 C.2   115  HIS115      0.2596
    118  O         -7.6720    1.1700    5.7190 O.2   115  HIS115     -0.2718
    119  CB        -4.9130   -0.1850    5.2200 C.3   115  HIS115      0.0759
    120  CG        -3.9490    0.4490    6.1770 C.ar  115  HIS115      0.0818
    121  ND1       -4.0930    1.7420    6.6340 N.ar  115  HIS115     -0.2268
    122  CD2       -2.8360   -0.0400    6.7770 C.ar  115  HIS115      0.1154
    123  CE1       -3.1100    2.0230    7.4700 C.ar  115  HIS115      0.1986
    124  NE2       -2.3320    0.9600    7.5750 N.ar  115  HIS115     -0.2212
    125  N         -6.9870    0.5710    7.7840 N.am  116  TYR116     -0.1976
    126  CA        -7.7740    1.5970    8.4620 C.3   116  TYR116      0.1639
    127  C         -7.5650    3.0140    7.9440 C.2   116  TYR116      0.2290
    128  O         -8.4790    3.8250    7.9850 O.2   116  TYR116     -0.2864
    129  CB        -7.4970    1.5650    9.9720 C.3   116  TYR116      0.0560
    130  CG        -6.2450    2.3100   10.3760 C.ar  116  TYR116     -0.0198
    131  CD1       -6.2550    3.6990   10.5330 C.ar  116  TYR116     -0.0009
    132  CD2       -5.0410    1.6330   10.5690 C.ar  116  TYR116     -0.0009
    133  CE1       -5.1000    4.3880   10.8670 C.ar  116  TYR116      0.0417
    134  CE2       -3.8750    2.3160   10.9080 C.ar  116  TYR116      0.0417
    135  CZ        -3.9120    3.6920   11.0520 C.ar  116  TYR116      0.1957
    136  OH        -2.7530    4.3700   11.3470 O.3   116  TYR116     -0.2866
    137  N         -5.4440    8.6510    3.4950 N.3   121  ARG121     -0.1245
    138  CA        -4.0420    8.8050    3.1430 C.3   121  ARG121      0.1563
    139  C         -3.7770    9.0170    1.6590 C.2   121  ARG121      0.2260
    140  O         -3.9290    8.1090    0.8460 O.2   121  ARG121     -0.2867
    141  CB        -3.2660    7.5850    3.6450 C.3   121  ARG121      0.0307
    142  CG        -3.2670    7.4690    5.1570 C.3   121  ARG121      0.0489
    143  CD        -2.5580    6.2180    5.6170 C.3   121  ARG121      0.2205
    144  NE        -2.2610    6.2770    7.0470 N.pl3 121  ARG121     -0.0865
    145  CZ        -1.4790    5.4160    7.6850 C.cat 121  ARG121      0.5346
    146  NH1       -0.9070    4.4160    7.0260 N.pl3 121  ARG121      0.1354
    147  NH2       -1.2650    5.5620    8.9870 N.pl3 121  ARG121      0.1354
@<TRIPOS>BOND
     1   140   139    2
     2    64    62    1
     3   139   138    1
     4    63    62    1
     5    68    67    2
     6    79    77    1
     7    62    61    1
     8    75    74    1
     9    75    76    2
    10    74    77    1
    11    74    73    1
    12    61    58    1
    13   138   137    1
    14   138   141    1
    15    67    73   am
    16    67    66    1
    17    77    78    1
    18    52    51    2
    19   113   111    1
    20    78    80    1
    21    58    59    1
    22    58    57    1
    23   141   142    1
    24    65    59   am
    25    65    66    1
    26    59    60    2
    27    66    69    1
    28    51    57   am
    29    51    50    1
    30    69    70    1
    31   114   112    1
    32   115   116    1
    33   111   112    1
    34   111   108    1
    35    49    50    1
    36     1     2    1
    37    18    19    1
    38   142   143    1
    39   119   116    1
    40   119   120    1
    41   109   110    2
    42   109   108    1
    43    50    53    1
    44   143   144    1
    45   118   117    2
    46   108   107    1
    47    70    72   ar
    48    70    71   ar
    49   116   117    1
    50    19    22    1
    51    19    20    1
    52     2     3    1
    53     2     5    1
    54    23    22    1
    55    23    24    1
    56     9    10    1
    57    41    40    2
    58   120   121   ar
    59   120   122   ar
    60    53    54    1
    61   117   125   am
    62    56    54   ar
    63     3     4    2
    64   121   123   ar
    65   122   124   ar
    66    54    55   ar
    67    26    24   ar
    68    20    21    2
    69   146   145    1
    70    24    25   ar
    71   144   145    2
    72    11    10    1
    73    11    12    2
    74   107   102   am
    75     5     6    1
    76    40    39    1
    77    10    13    1
    78   123   124   ar
    79    99    97    1
    80   145   147    1
    81   103   102    2
    82   125   126    1
    83     7     6    1
    84   127   128    2
    85   127   126    1
    86    43    42    1
    87    43    44    1
    88   102   101    1
    89    97    98    1
    90    97    96    1
    91    42    39    1
    92     6     8    1
    93    39    38    1
    94   126   129    1
    95    13    14    1
    96    14    15    1
    97    45    44    1
    98    45    46    2
    99    48    46    1
   100    46    47    1
   101    96    93    1
   102   101   100    1
   103   101   104    1
   104   100    94   am
   105   129   130    1
   106    15    16    2
   107    15    17   am
   108   105   104    1
   109   106   104    1
   110   130   131   ar
   111   130   132   ar
   112    93    94    1
   113    93    92    1
   114    94    95    2
   115   131   133   ar
   116   132   134   ar
   117   133   135   ar
   118   134   135   ar
   119   135   136    1
   120    91    89    1
   121    90    89    1
   122    84    83    2
   123    92    83   am
   124    89    88    2
   125    83    82    1
   126    88    87    1
   127    85    82    1
   128    85    86    1
   129    82    81    1
   130    87    86    1
   131    30    29    2
   132    29    28    1
   133    28    27    1
   134    28    31    1
   135    36    35    1
   136    37    35    1
   137    35    34    2
   138    31    32    1
   139    32    33    1
   140    34    33    1
