@<TRIPOS>MOLECULE
tmp/2qx0A02.pdb
 112 105 0 0 0
SMALL
GASTEIGER

@<TRIPOS>ATOM
      1  N          6.2930    1.6240    1.6320 N.3     9  GLY9       -0.1225
      2  CA         6.7320    2.8960    2.1740 C.3     9  GLY9        0.1811
      3  C          8.0970    2.7620    2.8340 C.2     9  GLY9        0.2280
      4  O          8.4210    1.7230    3.4120 O.2     9  GLY9       -0.2866
      5  N          6.3620   11.7880   -0.4270 N.3    42  THR42      -0.1203
      6  CA         5.2580   12.2570    0.4020 C.3    42  THR42       0.1994
      7  C          5.7000   12.7270    1.7860 C.2    42  THR42       0.2618
      8  O          6.7670   12.3500    2.2780 O.2    42  THR42      -0.2717
      9  CB         4.1970   11.1450    0.5540 C.3    42  THR42       0.1784
     10  OG1        4.7590   10.0340    1.2630 O.3    42  THR42      -0.2211
     11  CG2        3.7430   10.6740   -0.8090 C.3    42  THR42       0.0376
     12  N          4.8620   13.5500    2.4070 N.am   43  LYS43      -0.1966
     13  CA         5.1500   14.1060    3.7280 C.3    43  LYS43       0.1713
     14  C          4.7920   13.1240    4.8460 C.2    43  LYS43       0.2458
     15  O          3.6640   12.6380    4.9190 O.2    43  LYS43      -0.2730
     16  CB         4.3640   15.4060    3.9220 C.3    43  LYS43       0.0311
     17  CG         4.2030   16.2340    2.6530 C.3    43  LYS43       0.0038
     18  CD         5.5400   16.6170    2.0230 C.3    43  LYS43       0.0206
     19  CE         6.3690   17.5080    2.9340 C.3    43  LYS43       0.1093
     20  NZ         7.5350   18.1050    2.2030 N.3    43  LYS43      -0.1314
     21  N          5.7440   12.8510    5.7540 N.am   44  PRO44      -0.2716
     22  CA         5.5190   11.9230    6.8650 C.3    44  PRO44       0.1536
     23  C          4.4810   12.4010    7.8760 C.2    44  PRO44       0.2598
     24  O          4.4350   13.5740    8.2310 O.2    44  PRO44      -0.2715
     25  CB         6.9160   11.7740    7.4770 C.3    44  PRO44       0.0310
     26  CG         7.5280   13.1070    7.2400 C.3    44  PRO44       0.0237
     27  CD         7.0990   13.4290    5.8190 C.3    44  PRO44       0.0939
     28  N          3.6510   11.4730    8.3340 N.am   45  LEU45      -0.1978
     29  CA         2.6110   11.7750    9.3080 C.3    45  LEU45       0.1596
     30  C          3.2340   11.8420   10.7000 C.2    45  LEU45       0.2287
     31  O          4.2420   11.1920   10.9660 O.2    45  LEU45      -0.2864
     32  CB         1.5340   10.6790    9.2800 C.3    45  LEU45       0.0297
     33  CG         0.6920   10.4560    8.0150 C.3    45  LEU45       0.0022
     34  CD1       -0.1920    9.2180    8.2120 C.3    45  LEU45       0.0001
     35  CD2       -0.1760   11.6750    7.7380 C.3    45  LEU45       0.0001
     36  N         11.1660   14.0390   10.3840 N.3    50  GLN50      -0.1245
     37  CA        11.9570   12.9800    9.7740 C.3    50  GLN50       0.1566
     38  C         11.9470   13.1020    8.2480 C.2    50  GLN50       0.2260
     39  O         11.2290   13.9350    7.6940 O.2    50  GLN50      -0.2867
     40  CB        11.4190   11.6170   10.2260 C.3    50  GLN50       0.0367
     41  CG         9.9540   11.3630    9.9050 C.3    50  GLN50       0.0905
     42  CD         9.4370   10.0850   10.5510 C.2    50  GLN50       0.2608
     43  OE1       10.0880    9.0380   10.4960 O.2    50  GLN50      -0.2717
     44  NE2        8.2600   10.1640   11.1640 N.am   50  GLN50      -0.0878
     45  N          8.7800   10.4780    2.8240 N.3    53  PHE53      -0.1241
     46  CA         8.5510    9.0800    2.5140 C.3    53  PHE53       0.1605
     47  C          8.5530    8.8450    1.0140 C.2    53  PHE53       0.2264
     48  O          8.2150    9.7130    0.2180 O.2    53  PHE53      -0.2867
     49  CB         7.1990    8.6010    3.0650 C.3    53  PHE53       0.0534
     50  CG         7.2850    7.9650    4.4140 C.ar   53  PHE53      -0.0203
     51  CD1        7.2930    8.7390    5.5670 C.ar   53  PHE53      -0.0042
     52  CD2        7.3850    6.5810    4.5320 C.ar   53  PHE53      -0.0042
     53  CE1        7.3990    8.1490    6.8190 C.ar   53  PHE53      -0.0003
     54  CE2        7.4910    5.9760    5.7810 C.ar   53  PHE53      -0.0003
     55  CZ         7.4990    6.7620    6.9300 C.ar   53  PHE53      -0.0000
     56  N          6.6510    6.4430   -1.4040 N.3    55  ASN55      -0.1240
     57  CA         5.5010    5.5540   -1.4070 C.3    55  ASN55       0.1653
     58  C          5.1420    5.0930   -2.8030 C.2    55  ASN55       0.2266
     59  O          5.3080    5.8230   -3.7830 O.2    55  ASN55      -0.2867
     60  CB         4.2800    6.2280   -0.7870 C.3    55  ASN55       0.1155
     61  CG         4.3750    6.3490    0.7190 C.2    55  ASN55       0.2627
     62  OD1        4.6960    7.4080    1.2450 O.2    55  ASN55      -0.2716
     63  ND2        4.0910    5.2500    1.4230 N.am   55  ASN55      -0.0877
     64  N         12.0000    4.6010    8.7390 N.3    92  ARG92      -0.1245
     65  CA        11.4540    3.2780    8.4590 C.3    92  ARG92       0.1563
     66  C         12.1040    2.6830    7.2150 C.2    92  ARG92       0.2260
     67  O         12.0770    3.2910    6.1480 O.2    92  ARG92      -0.2867
     68  CB         9.9390    3.3860    8.2610 C.3    92  ARG92       0.0307
     69  CG         9.2220    2.0600    8.0490 C.3    92  ARG92       0.0489
     70  CD         9.3980    1.1280    9.2310 C.3    92  ARG92       0.2205
     71  NE         8.6620   -0.1230    9.0490 N.pl3  92  ARG92      -0.0865
     72  CZ         7.3700   -0.2760    9.3240 C.cat  92  ARG92       0.5346
     73  NH1        6.6640    0.7430    9.7980 N.pl3  92  ARG92       0.1354
     74  NH2        6.7830   -1.4480    9.1320 N.pl3  92  ARG92       0.1354
     75  N          7.9300   -0.5620    4.9300 N.3    95  ASP95      -0.1239
     76  CA         6.6420   -0.8710    5.5410 C.3    95  ASP95       0.1674
     77  C          5.7040   -1.3440    4.4260 C.2    95  ASP95       0.2266
     78  O          5.5160   -0.6450    3.4360 O.2    95  ASP95      -0.2867
     79  CB         6.0810    0.3820    6.2300 C.3    95  ASP95       0.1410
     80  CG         4.6870    0.1730    6.7950 C.2    95  ASP95       0.3668
     81  OD1        4.4850   -0.7960    7.5610 O.co2  95  ASP95      -0.2456
     82  OD2        3.7980    0.9930    6.4730 O.co2  95  ASP95      -0.2456
     83  N          1.9320   -2.4170    3.7890 N.3    97  ASP97      -0.1239
     84  CA         0.5850   -2.4920    4.3300 C.3    97  ASP97       0.1674
     85  C         -0.3610   -3.1160    3.3200 C.2    97  ASP97       0.2266
     86  O         -0.3800   -2.7120    2.1570 O.2    97  ASP97      -0.2867
     87  CB         0.0850   -1.0980    4.7140 C.3    97  ASP97       0.1410
     88  CG         0.8570   -0.4920    5.8660 C.2    97  ASP97       0.3668
     89  OD1        1.6770   -1.2120    6.4750 O.co2  97  ASP97      -0.2456
     90  OD2        0.6310    0.7010    6.1730 O.co2  97  ASP97      -0.2456
     91  N         -5.4440    8.6510    3.4950 N.3   121  ARG121     -0.1245
     92  CA        -4.0420    8.8050    3.1430 C.3   121  ARG121      0.1563
     93  C         -3.7770    9.0170    1.6590 C.2   121  ARG121      0.2260
     94  O         -3.9290    8.1090    0.8460 O.2   121  ARG121     -0.2867
     95  CB        -3.2660    7.5850    3.6450 C.3   121  ARG121      0.0307
     96  CG        -3.2670    7.4690    5.1570 C.3   121  ARG121      0.0489
     97  CD        -2.5580    6.2180    5.6170 C.3   121  ARG121      0.2205
     98  NE        -2.2610    6.2770    7.0470 N.pl3 121  ARG121     -0.0865
     99  CZ        -1.4790    5.4160    7.6850 C.cat 121  ARG121      0.5346
    100  NH1       -0.9070    4.4160    7.0260 N.pl3 121  ARG121      0.1354
    101  NH2       -1.2650    5.5620    8.9870 N.pl3 121  ARG121      0.1354
    102  N         -1.0110    9.2450    0.1960 N.3   123  PHE123     -0.1241
    103  CA         0.0890    8.4110   -0.2750 C.3   123  PHE123      0.1605
    104  C         -0.3140    6.9690   -0.5980 C.2   123  PHE123      0.2264
    105  O          0.4750    6.2060   -1.1620 O.2   123  PHE123     -0.2867
    106  CB         1.2690    8.4730    0.7070 C.3   123  PHE123      0.0534
    107  CG         0.9160    8.1340    2.1320 C.ar  123  PHE123     -0.0203
    108  CD1        0.8870    6.8120    2.5590 C.ar  123  PHE123     -0.0042
    109  CD2        0.6330    9.1440    3.0480 C.ar  123  PHE123     -0.0042
    110  CE1        0.5830    6.4920    3.8850 C.ar  123  PHE123     -0.0003
    111  CE2        0.3280    8.8390    4.3690 C.ar  123  PHE123     -0.0003
    112  CZ         0.3030    7.5100    4.7890 C.ar  123  PHE123     -0.0000
@<TRIPOS>BOND
     1    59    58    2
     2    58    57    1
     3    57    56    1
     4    57    60    1
     5   105   104    2
     6    11     9    1
     7    60    61    1
     8   104   103    1
     9     5     6    1
    10   103   102    1
    11   103   106    1
    12    48    47    2
    13     6     9    1
    14     6     7    1
    15     9    10    1
    16   106   107    1
    17    61    62    2
    18    61    63   am
    19    94    93    2
    20    47    46    1
    21     1     2    1
    22    93    92    1
    23     7     8    2
    24     7    12   am
    25    18    17    1
    26    18    19    1
    27   107   108   ar
    28   107   109   ar
    29    86    85    2
    30     2     3    1
    31    20    19    1
    32    12    13    1
    33    46    45    1
    34    46    49    1
    35   108   110   ar
    36    17    16    1
    37     3     4    2
    38   109   111   ar
    39    49    50    1
    40    92    91    1
    41    92    95    1
    42    85    84    1
    43    78    77    2
    44    95    96    1
    45    13    16    1
    46    13    14    1
    47    83    84    1
    48   110   112   ar
    49    84    87    1
    50   111   112   ar
    51    50    52   ar
    52    50    51   ar
    53    77    76    1
    54    52    54   ar
    55    87    88    1
    56    14    15    2
    57    14    21   am
    58    75    76    1
    59    96    97    1
    60    76    79    1
    61    51    53   ar
    62    97    98    1
    63    21    27    1
    64    21    22    1
    65    54    55   ar
    66    27    26    1
    67    88    90   ar
    68    88    89   ar
    69    67    66    2
    70    79    80    1
    71    82    80   ar
    72    80    81   ar
    73    53    55   ar
    74    22    25    1
    75    22    23    1
    76   100    99    1
    77    98    99    2
    78    66    65    1
    79    26    25    1
    80    99   101    1
    81    39    38    2
    82    35    33    1
    83    23    24    2
    84    23    28   am
    85    33    34    1
    86    33    32    1
    87    69    68    1
    88    69    70    1
    89    38    37    1
    90    68    65    1
    91    28    29    1
    92    65    64    1
    93    71    70    1
    94    71    72    2
    95    74    72    1
    96    32    29    1
    97    29    30    1
    98    72    73    1
    99    37    40    1
   100    37    36    1
   101    41    40    1
   102    41    42    1
   103    43    42    2
   104    42    44   am
   105    30    31    2
