@<TRIPOS>MOLECULE
tmp/2qx1A00.pdb
 199 193 0 0 0
SMALL
GASTEIGER

@<TRIPOS>ATOM
      1  N         50.0770   43.4340   44.5380 N.3    36  ILE36      -0.1231
      2  CA        49.3230   43.4780   45.7970 C.3    36  ILE36       0.1692
      3  C         50.2060   43.0220   46.9530 C.2    36  ILE36       0.2592
      4  O         51.1610   42.2690   46.7570 O.2    36  ILE36      -0.2718
      5  CB        48.0310   42.5870   45.7840 C.3    36  ILE36       0.0266
      6  CG1       48.3200   41.1940   45.2120 C.3    36  ILE36       0.0019
      7  CG2       46.8740   43.2780   45.0480 C.3    36  ILE36       0.0020
      8  CD1       47.6550   40.0780   45.9790 C.3    36  ILE36       0.0001
      9  N         49.8720   43.4780   48.1570 N.am   37  ASP37      -0.1960
     10  CA        50.5750   43.0680   49.3710 C.3    37  ASP37       0.1840
     11  C         50.0100   41.7570   49.9480 C.2    37  ASP37       0.2622
     12  O         49.0480   41.7780   50.7280 O.2    37  ASP37      -0.2715
     13  CB        50.5050   44.1810   50.4160 C.3    37  ASP37       0.1450
     14  CG        51.0810   43.7590   51.7450 C.2    37  ASP37       0.3671
     15  OD1       52.3240   43.8220   51.9040 O.co2  37  ASP37      -0.2456
     16  OD2       50.2870   43.3600   52.6260 O.co2  37  ASP37      -0.2456
     17  N         50.6010   40.6230   49.5580 N.am   38  SER38      -0.1950
     18  CA        50.1760   39.3050   50.0600 C.3    38  SER38       0.1924
     19  C         51.2980   38.2430   49.9820 C.2    38  SER38       0.2314
     20  O         52.4870   38.5870   49.8980 O.2    38  SER38      -0.2863
     21  CB        48.9080   38.8370   49.3310 C.3    38  SER38       0.2116
     22  OG        48.1030   38.0380   50.1770 O.3    38  SER38      -0.2180
     23  N         48.9220   33.1040   52.5020 N.3    42  TRP42      -0.1241
     24  CA        47.7750   33.9630   52.7890 C.3    42  TRP42       0.1605
     25  C         46.6240   33.7120   51.8110 C.2    42  TRP42       0.2264
     26  O         45.4600   33.6780   52.2200 O.2    42  TRP42      -0.2867
     27  CB        48.1740   35.4490   52.7910 C.3    42  TRP42       0.0550
     28  CG        47.1660   36.3280   53.4810 C.ar   42  TRP42       0.0003
     29  CD1       47.2530   36.8380   54.7470 C.ar   42  TRP42       0.0946
     30  CD2       45.9030   36.7790   52.9550 C.ar   42  TRP42       0.0152
     31  NE1       46.1320   37.5830   55.0380 N.ar   42  TRP42      -0.2442
     32  CE2       45.2880   37.5600   53.9560 C.ar   42  TRP42       0.0810
     33  CE3       45.2350   36.6040   51.7300 C.ar   42  TRP42       0.0012
     34  CZ2       44.0310   38.1570   53.7730 C.ar   42  TRP42       0.0191
     35  CZ3       43.9900   37.2010   51.5510 C.ar   42  TRP42       0.0001
     36  CH2       43.4050   37.9650   52.5670 C.ar   42  TRP42       0.0015
     37  N         42.9970   31.2760   52.9890 N.3    46  ARG46      -0.1231
     38  CA        41.7410   32.0320   53.0380 C.3    46  ARG46       0.1694
     39  C         40.8060   31.7960   51.8550 C.2    46  ARG46       0.2592
     40  O         39.6490   32.2290   51.8930 O.2    46  ARG46      -0.2718
     41  CB        42.0150   33.5240   53.1950 C.3    46  ARG46       0.0321
     42  CG        42.4220   33.8920   54.5910 C.3    46  ARG46       0.0489
     43  CD        42.7160   35.3720   54.7240 C.3    46  ARG46       0.2205
     44  NE        43.0520   35.8000   56.0900 N.pl3  46  ARG46      -0.0865
     45  CZ        44.0890   35.3560   56.8050 C.cat  46  ARG46       0.5346
     46  NH1       44.9070   34.4280   56.3190 N.pl3  46  ARG46       0.1354
     47  NH2       44.2990   35.8320   58.0280 N.pl3  46  ARG46       0.1354
     48  N         41.3050   31.1280   50.8120 N.am   47  THR47      -0.1953
     49  CA        40.4910   30.8000   49.6310 C.3    47  THR47       0.1897
     50  C         40.5450   29.3160   49.2540 C.2    47  THR47       0.2313
     51  O         39.5170   28.7100   48.9510 O.2    47  THR47      -0.2863
     52  CB        40.8930   31.6340   48.3900 C.3    47  THR47       0.1794
     53  OG1       42.2530   31.3430   48.0320 O.3    47  THR47      -0.2208
     54  CG2       40.7400   33.1340   48.6600 C.3    47  THR47       0.0378
     55  N         43.5980   44.1930   46.3580 N.3   161  ARG161     -0.1231
     56  CA        44.0390   43.2620   47.4000 C.3   161  ARG161      0.1694
     57  C         42.8950   42.3680   47.8910 C.2   161  ARG161      0.2592
     58  O         43.1310   41.3290   48.5140 O.2   161  ARG161     -0.2718
     59  CB        44.6670   44.0170   48.5810 C.3   161  ARG161      0.0321
     60  CG        46.0890   44.5460   48.3220 C.3   161  ARG161      0.0489
     61  CD        46.6380   45.3840   49.4790 C.3   161  ARG161      0.2205
     62  NE        47.3130   44.5810   50.5080 N.pl3 161  ARG161     -0.0865
     63  CZ        46.7390   44.0910   51.6070 C.cat 161  ARG161      0.5346
     64  NH1       45.4530   44.2980   51.8620 N.pl3 161  ARG161      0.1354
     65  NH2       47.4600   43.3850   52.4640 N.pl3 161  ARG161      0.1354
     66  N         41.6620   42.7770   47.5930 N.am  162  GLY162     -0.1957
     67  CA        40.4680   42.0700   48.0340 C.3   162  GLY162      0.1869
     68  C         40.0290   40.9300   47.1370 C.2   162  GLY162      0.2309
     69  O         39.4150   39.9830   47.6240 O.2   162  GLY162     -0.2863
     70  N         43.0890   37.7850   43.1900 N.3   165  PHE165     -0.1227
     71  CA        43.4380   36.3670   43.2050 C.3   165  PHE165      0.1736
     72  C         42.2100   35.4280   43.1330 C.2   165  PHE165      0.2595
     73  O         42.3670   34.2080   43.2010 O.2   165  PHE165     -0.2718
     74  CB        44.2120   36.0790   44.4890 C.3   165  PHE165      0.0547
     75  CG        43.5920   36.7080   45.6990 C.ar  165  PHE165     -0.0202
     76  CD1       42.5660   36.0670   46.3860 C.ar  165  PHE165     -0.0042
     77  CD2       43.9920   37.9660   46.1220 C.ar  165  PHE165     -0.0042
     78  CE1       41.9650   36.6610   47.4970 C.ar  165  PHE165     -0.0003
     79  CE2       43.3960   38.5610   47.2270 C.ar  165  PHE165     -0.0003
     80  CZ        42.3800   37.9030   47.9170 C.ar  165  PHE165     -0.0000
     81  N         41.0010   35.9710   42.9970 N.am  166  ILE166     -0.1966
     82  CA        39.7930   35.1230   43.0550 C.3   166  ILE166      0.1727
     83  C         39.3490   34.5950   41.6980 C.2   166  ILE166      0.2616
     84  O         39.0430   33.4110   41.5620 O.2   166  ILE166     -0.2715
     85  CB        38.5870   35.8420   43.7310 C.3   166  ILE166      0.0290
     86  CG1       38.8540   36.1090   45.2190 C.3   166  ILE166      0.0022
     87  CG2       37.2770   35.0620   43.5250 C.3   166  ILE166      0.0023
     88  CD1       38.7720   34.9030   46.0970 C.3   166  ILE166      0.0001
     89  N         39.3050   35.4710   40.7010 N.am  167  PHE167     -0.1974
     90  CA        38.7070   35.1320   39.4170 C.3   167  PHE167      0.1639
     91  C         39.6930   34.5360   38.4080 C.2   167  PHE167      0.2290
     92  O         40.8550   34.9260   38.3630 O.2   167  PHE167     -0.2864
     93  CB        37.9870   36.3550   38.8350 C.3   167  PHE167      0.0560
     94  CG        36.8040   36.8110   39.6550 C.ar  167  PHE167     -0.0200
     95  CD1       36.9100   37.8980   40.5070 C.ar  167  PHE167     -0.0042
     96  CD2       35.5840   36.1400   39.5780 C.ar  167  PHE167     -0.0042
     97  CE1       35.8160   38.3190   41.2600 C.ar  167  PHE167     -0.0003
     98  CE2       34.4810   36.5540   40.3310 C.ar  167  PHE167     -0.0003
     99  CZ        34.5970   37.6410   41.1710 C.ar  167  PHE167     -0.0000
    100  N         28.7180   41.6890   44.4410 N.3   199  ILE199     -0.1245
    101  CA        29.5880   41.3340   43.3260 C.3   199  ILE199      0.1561
    102  C         29.1120   42.1360   42.1210 C.2   199  ILE199      0.2260
    103  O         27.9660   41.9950   41.6870 O.2   199  ILE199     -0.2867
    104  CB        29.5510   39.8150   43.0180 C.3   199  ILE199      0.0252
    105  CG1       29.6450   38.9990   44.3230 C.3   199  ILE199      0.0019
    106  CG2       30.6480   39.4580   42.0050 C.3   199  ILE199      0.0019
    107  CD1       29.5420   37.4830   44.1720 C.3   199  ILE199      0.0001
    108  N         33.9710   43.2690   44.6880 N.3   221  LEU221     -0.1245
    109  CA        33.5200   42.2100   45.5750 C.3   221  LEU221      0.1561
    110  C         33.5200   42.6950   47.0100 C.2   221  LEU221      0.2260
    111  O         34.5040   43.2650   47.4840 O.2   221  LEU221     -0.2867
    112  CB        34.4450   40.9970   45.4460 C.3   221  LEU221      0.0270
    113  CG        34.1780   39.7600   46.3030 C.3   221  LEU221      0.0019
    114  CD1       32.9820   38.9840   45.7710 C.3   221  LEU221      0.0001
    115  CD2       35.4260   38.8860   46.3230 C.3   221  LEU221      0.0001
    116  N         33.6800   41.0120   49.9190 N.3   223  GLY223     -0.1210
    117  CA        34.0920   39.7830   50.6120 C.3   223  GLY223      0.1940
    118  C         33.1980   39.2370   51.7170 C.2   223  GLY223      0.2453
    119  O         32.4300   38.2960   51.4810 O.2   223  GLY223     -0.2732
    120  N         33.2910   39.8210   52.9340 N.am  224  PRO224     -0.2728
    121  CA        32.4710   39.3970   54.0750 C.3   224  PRO224      0.1401
    122  C         30.9820   39.1980   53.7300 C.2   224  PRO224      0.2269
    123  O         30.4280   38.1340   54.0030 O.2   224  PRO224     -0.2865
    124  CB        32.6650   40.5420   55.0780 C.3   224  PRO224      0.0296
    125  CG        34.0270   41.0400   54.7950 C.3   224  PRO224      0.0237
    126  CD        34.1850   40.9400   53.2990 C.3   224  PRO224      0.0939
    127  N         29.3630   38.5060   50.9400 N.3   226  VAL226     -0.1231
    128  CA        29.0940   37.2860   50.1680 C.3   226  VAL226      0.1692
    129  C         29.4150   36.0010   50.9370 C.2   226  VAL226      0.2592
    130  O         28.6570   35.0350   50.8580 O.2   226  VAL226     -0.2718
    131  CB        29.8160   37.2450   48.8040 C.3   226  VAL226      0.0266
    132  CG1       29.3280   36.0340   48.0180 C.3   226  VAL226      0.0020
    133  CG2       29.5630   38.5010   48.0140 C.3   226  VAL226      0.0020
    134  N         30.5440   35.9840   51.6430 N.am  227  PHE227     -0.1976
    135  CA        30.8790   34.8830   52.5340 C.3   227  PHE227      0.1639
    136  C         29.6920   34.6450   53.4660 C.2   227  PHE227      0.2290
    137  O         29.0250   33.6050   53.4020 O.2   227  PHE227     -0.2864
    138  CB        32.1310   35.2190   53.3630 C.3   227  PHE227      0.0560
    139  CG        32.6280   34.0790   54.2250 C.ar  227  PHE227     -0.0200
    140  CD1       33.8480   33.4690   53.9520 C.ar  227  PHE227     -0.0042
    141  CD2       31.8780   33.6160   55.3120 C.ar  227  PHE227     -0.0042
    142  CE1       34.3170   32.4160   54.7440 C.ar  227  PHE227     -0.0003
    143  CE2       32.3380   32.5560   56.1060 C.ar  227  PHE227     -0.0003
    144  CZ        33.5610   31.9600   55.8200 C.ar  227  PHE227     -0.0000
    145  N         29.3500   25.7110   43.8810 N.3   258  HIS258     -0.1241
    146  CA        30.0840   26.6940   43.1210 C.3   258  HIS258      0.1621
    147  C         31.4050   27.0240   43.8120 C.2   258  HIS258      0.2264
    148  O         31.4630   27.1940   45.0350 O.2   258  HIS258     -0.2867
    149  CB        29.2650   27.9570   42.9470 C.3   258  HIS258      0.0745
    150  CG        30.0530   29.0840   42.3790 C.ar  258  HIS258      0.0817
    151  ND1       30.3210   29.1900   41.0330 N.ar  258  HIS258     -0.2268
    152  CD2       30.6790   30.1240   42.9760 C.ar  258  HIS258      0.1154
    153  CE1       31.0550   30.2680   40.8200 C.ar  258  HIS258      0.1986
    154  NE2       31.2860   30.8520   41.9820 N.ar  258  HIS258     -0.2212
    155  N         33.5220   29.2430   44.9150 N.3   260  ALA260     -0.1231
    156  CA        33.7180   30.6190   45.3460 C.3   260  ALA260      0.1694
    157  C         34.9520   30.7630   46.2260 C.2   260  ALA260      0.2592
    158  O         35.7210   31.7080   46.0780 O.2   260  ALA260     -0.2718
    159  CB        32.4720   31.1190   46.0960 C.3   260  ALA260      0.0304
    160  N         35.1220   29.7960   47.1270 N.am  261  ASN261     -0.1974
    161  CA        36.0050   29.8630   48.2890 C.3   261  ASN261      0.1688
    162  C         35.8360   28.5490   49.0720 C.2   261  ASN261      0.2292
    163  O         34.7100   28.2050   49.4850 O.2   261  ASN261     -0.2864
    164  CB        35.6060   31.0420   49.1750 C.3   261  ASN261      0.1181
    165  CG        36.4750   31.1680   50.4140 C.2   261  ASN261      0.2629
    166  OD1       37.5850   31.6940   50.3550 O.2   261  ASN261     -0.2716
    167  ND2       35.9640   30.6970   51.5490 N.am  261  ASN261     -0.0877
    168  N         33.9720   28.6070   52.6280 N.3   264  ILE264     -0.1245
    169  CA        32.5090   28.6410   52.4670 C.3   264  ILE264      0.1561
    170  C         31.9620   27.2370   52.2080 C.2   264  ILE264      0.2260
    171  O         31.0290   26.7890   52.8680 O.2   264  ILE264     -0.2867
    172  CB        32.0740   29.5990   51.3140 C.3   264  ILE264      0.0252
    173  CG1       32.4730   31.0500   51.6340 C.3   264  ILE264      0.0019
    174  CG2       30.5660   29.4680   51.0230 C.3   264  ILE264      0.0019
    175  CD1       32.3280   32.0170   50.4870 C.3   264  ILE264      0.0001
    176  N         38.1050   30.8760   40.8760 N.3   289  ASN289     -0.1240
    177  CA        36.6600   31.0630   40.6270 C.3   289  ASN289      0.1653
    178  C         36.3390   31.4460   39.1890 C.2   289  ASN289      0.2266
    179  O         36.6200   32.5630   38.7640 O.2   289  ASN289     -0.2867
    180  CB        36.0530   32.0960   41.5920 C.3   289  ASN289      0.1155
    181  CG        34.5290   32.2090   41.4710 C.2   289  ASN289      0.2627
    182  OD1       33.9620   32.1470   40.3780 O.2   289  ASN289     -0.2716
    183  ND2       33.8630   32.3810   42.6050 N.am  289  ASN289     -0.0877
    184  N         26.1580   29.8900   43.2770 N.3   319  TYR319     -0.1227
    185  CA        25.9550   31.1660   43.9560 C.3   319  TYR319      0.1736
    186  C         26.9810   32.2220   43.5490 C.2   319  TYR319      0.2596
    187  O         28.1410   31.9090   43.2580 O.2   319  TYR319     -0.2718
    188  CB        25.9230   31.0030   45.4830 C.3   319  TYR319      0.0548
    189  CG        27.1680   30.4100   46.0900 C.ar  319  TYR319     -0.0200
    190  CD1       28.1750   31.2260   46.6100 C.ar  319  TYR319     -0.0009
    191  CD2       27.3330   29.0310   46.1600 C.ar  319  TYR319     -0.0009
    192  CE1       29.3140   30.6760   47.1780 C.ar  319  TYR319      0.0417
    193  CE2       28.4720   28.4720   46.7160 C.ar  319  TYR319      0.0417
    194  CZ        29.4560   29.2920   47.2240 C.ar  319  TYR319      0.1957
    195  OH        30.5740   28.7100   47.7790 O.3   319  TYR319     -0.2866
    196  N         26.5380   33.4770   43.5330 N.am  320  GLY320     -0.1957
    197  CA        27.3710   34.5630   43.0550 C.3   320  GLY320      0.1869
    198  C         26.5930   35.8160   42.7350 C.2   320  GLY320      0.2309
    199  O         25.6150   36.1320   43.4180 O.2   320  GLY320     -0.2863
@<TRIPOS>BOND
     1    92    91    2
     2    91    90    1
     3   179   178    2
     4    93    90    1
     5    93    94    1
     6   178   177    1
     7    90    89    1
     8    96    94   ar
     9    96    98   ar
    10    94    95   ar
    11    98    99   ar
    12   182   181    2
    13    95    97   ar
    14   177   176    1
    15   177   180    1
    16    89    83   am
    17   153   151   ar
    18   153   154   ar
    19   151   150   ar
    20    99    97   ar
    21   181   180    1
    22   181   183   am
    23    84    83    2
    24   103   102    2
    25    83    82    1
    26   154   152   ar
    27   106   104    1
    28   102   101    1
    29   150   149    1
    30   150   152   ar
    31   198   197    1
    32   198   199    2
    33   149   146    1
    34    81    82    1
    35    81    72   am
    36   104   101    1
    37   104   105    1
    38    82    85    1
    39   197   196    1
    40   146   147    1
    41   146   145    1
    42    72    73    2
    43    72    71    1
    44    70    71    1
    45    71    74    1
    46   187   186    2
    47   184   185    1
    48   101   100    1
    49    87    85    1
    50   196   186   am
    51   186   185    1
    52    85    86    1
    53   147   148    2
    54   185   188    1
    55   107   105    1
    56    74    75    1
    57     1     2    1
    58   108   109    1
    59   155   156    1
    60     7     5    1
    61     6     5    1
    62     6     8    1
    63    86    88    1
    64   156   159    1
    65   156   157    1
    66   112   109    1
    67   112   113    1
    68   188   189    1
    69   109   110    1
    70    75    77   ar
    71    75    76   ar
    72   114   113    1
    73     5     2    1
    74     2     3    1
    75   158   157    2
    76   189   191   ar
    77   189   190   ar
    78    77    79   ar
    79   191   193   ar
    80   157   160   am
    81   113   115    1
    82    55    56    1
    83    76    78   ar
    84   190   192   ar
    85   193   194   ar
    86     4     3    2
    87     3     9   am
    88   110   111    2
    89   160   161    1
    90    68    69    2
    91    68    67    1
    92   192   194   ar
    93   194   195    1
    94    79    80   ar
    95    56    57    1
    96    56    59    1
    97    78    80   ar
    98    66    57   am
    99    66    67    1
   100    57    58    2
   101   133   131    1
   102   132   131    1
   103    53    52    1
   104     9    10    1
   105   161   162    1
   106   161   164    1
   107    60    59    1
   108    60    61    1
   109    52    54    1
   110    52    49    1
   111   131   128    1
   112    51    50    2
   113   162   163    2
   114   164   165    1
   115    50    49    1
   116    21    18    1
   117    21    22    1
   118    10    11    1
   119    10    13    1
   120    61    62    1
   121    17    11   am
   122    17    18    1
   123    49    48    1
   124    20    19    2
   125   116   117    1
   126    11    12    2
   127    19    18    1
   128   128   129    1
   129   128   127    1
   130   166   165    2
   131   165   167   am
   132    13    14    1
   133   175   173    1
   134    62    63    2
   135   117   118    1
   136    48    39   am
   137   130   129    2
   138   129   134   am
   139   174   172    1
   140   172   173    1
   141   172   169    1
   142   119   118    2
   143    35    33   ar
   144    35    36   ar
   145    63    64    1
   146    63    65    1
   147   134   135    1
   148   118   120   am
   149    33    30   ar
   150    14    15   ar
   151    14    16   ar
   152    25    26    2
   153    25    24    1
   154    39    40    2
   155    39    38    1
   156   170   169    1
   157   170   171    2
   158   169   168    1
   159    23    24    1
   160   135   138    1
   161   135   136    1
   162    36    34   ar
   163    24    27    1
   164    27    28    1
   165   120   126    1
   166   120   121    1
   167    30    28   ar
   168    30    32   ar
   169    37    38    1
   170    38    41    1
   171    41    42    1
   172   126   125    1
   173   138   139    1
   174   137   136    2
   175    28    29   ar
   176   122   123    2
   177   122   121    1
   178    34    32   ar
   179   140   139   ar
   180   140   142   ar
   181    32    31   ar
   182   121   124    1
   183   139   141   ar
   184    42    43    1
   185    43    44    1
   186   142   144   ar
   187    29    31   ar
   188   125   124    1
   189   141   143   ar
   190   144   143   ar
   191    44    45    2
   192    46    45    1
   193    45    47    1
