@<TRIPOS>MOLECULE
tmp/2qx6B03.pdb
 79 74 0 0 0
SMALL
GASTEIGER

@<TRIPOS>ATOM
      1  N         28.0030    8.0730   16.8880 N.3    68  GLY68      -0.1225
      2  CA        28.2190    9.0840   15.8690 C.3    68  GLY68       0.1811
      3  C         29.6710    9.1900   15.4320 C.2    68  GLY68       0.2280
      4  O         29.9650    9.2550   14.2380 O.2    68  GLY68      -0.2866
      5  N         30.8520    5.7730   13.6150 N.3    71  THR71      -0.1218
      6  CA        30.3270    5.6050   12.2730 C.3    71  THR71       0.1862
      7  C         30.9240    6.6360   11.3340 C.2    71  THR71       0.2287
      8  O         31.1080    6.3620   10.1440 O.2    71  THR71      -0.2866
      9  CB        28.7660    5.6820   12.2510 C.3    71  THR71       0.1770
     10  OG1       28.3130    6.9220   12.8150 O.3    71  THR71      -0.2211
     11  CG2       28.1930    4.5300   13.0400 C.3    71  THR71       0.0375
     12  N         22.1280    7.4080    7.1200 N.3   120  LEU120     -0.1231
     13  CA        22.4970    8.8110    6.9710 C.3   120  LEU120      0.1693
     14  C         23.5430    9.2340    7.9960 C.2   120  LEU120      0.2592
     15  O         23.2880   10.0800    8.8550 O.2   120  LEU120     -0.2718
     16  CB        21.2300    9.6700    7.0940 C.3   120  LEU120      0.0284
     17  CG        20.1030    9.2220    6.1550 C.3   120  LEU120      0.0019
     18  CD1       18.8380   10.0360    6.4410 C.3   120  LEU120      0.0001
     19  CD2       20.5190    9.3770    4.6950 C.3   120  LEU120      0.0001
     20  N         24.7340    8.6600    7.8960 N.am  121  CYS121     -0.1956
     21  CA        25.7730    8.9500    8.8730 C.3   121  CYS121      0.1843
     22  C         26.6000   10.1730    8.5350 C.2   121  CYS121      0.2625
     23  O         26.5760   10.6720    7.4060 O.2   121  CYS121     -0.2714
     24  CB        26.6940    7.7350    9.0450 C.3   121  CYS121      0.0997
     25  SG        27.8340    7.4260    7.6720 S.3   121  CYS121     -0.0797
     26  N         27.3050   10.6910    9.5360 N.am  122  GLN122     -0.1977
     27  CA        28.1470   11.8460    9.2910 C.3   122  GLN122      0.1601
     28  C         29.2180   11.4660    8.2660 C.2   122  GLN122      0.2287
     29  O         29.8170   10.3870    8.3350 O.2   122  GLN122     -0.2864
     30  CB        28.8180   12.3310   10.5870 C.3   122  GLN122      0.0394
     31  CG        29.4930   13.6740   10.4130 C.3   122  GLN122      0.0908
     32  CD        30.1260   14.1930   11.6880 C.2   122  GLN122      0.2608
     33  OE1       29.8220   13.7170   12.7840 O.2   122  GLN122     -0.2717
     34  NE2       31.0090   15.1840   11.5500 N.am  122  GLN122     -0.0878
     35  N         25.8550   14.2550    5.8910 N.3   126  PHE126     -0.1241
     36  CA        26.0520   15.6210    6.3770 C.3   126  PHE126      0.1605
     37  C         27.3870   15.7070    7.0750 C.2   126  PHE126      0.2264
     38  O         28.0320   14.6970    7.3450 O.2   126  PHE126     -0.2867
     39  CB        24.9700   15.9860    7.3940 C.3   126  PHE126      0.0534
     40  CG        25.1150   15.2360    8.6770 C.ar  126  PHE126     -0.0203
     41  CD1       24.5950   13.9500    8.8050 C.ar  126  PHE126     -0.0042
     42  CD2       25.9240   15.7440    9.6910 C.ar  126  PHE126     -0.0042
     43  CE1       24.8810   13.1830    9.9060 C.ar  126  PHE126     -0.0003
     44  CE2       26.2220   14.9820   10.8010 C.ar  126  PHE126     -0.0003
     45  CZ        25.7050   13.6950   10.9180 C.ar  126  PHE126     -0.0000
     46  N         30.2540   19.0400    8.9640 N.3   128  ILE128     -0.1245
     47  CA        30.4950   20.4480    9.2500 C.3   128  ILE128      0.1561
     48  C         31.3690   20.7820    8.0390 C.2   128  ILE128      0.2260
     49  O         32.4460   20.1940    7.8720 O.2   128  ILE128     -0.2867
     50  CB        31.3260   20.6470   10.5490 C.3   128  ILE128      0.0252
     51  CG1       30.7130   19.8460   11.6920 C.3   128  ILE128      0.0019
     52  CG2       31.3540   22.1280   10.9420 C.3   128  ILE128      0.0019
     53  CD1       31.6670   18.8090   12.2680 C.3   128  ILE128      0.0001
     54  N         25.3270   20.9380    5.8680 N.3   131  PHE131     -0.1241
     55  CA        24.0290   20.6020    6.4480 C.3   131  PHE131      0.1605
     56  C         22.9680   21.6170    6.0200 C.2   131  PHE131      0.2264
     57  O         23.2760   22.7590    5.6550 O.2   131  PHE131     -0.2867
     58  CB        24.1220   20.4440    7.9770 C.3   131  PHE131      0.0534
     59  CG        24.4920   21.6980    8.7140 C.ar  131  PHE131     -0.0203
     60  CD1       23.5040   22.5510    9.2040 C.ar  131  PHE131     -0.0042
     61  CD2       25.8290   22.0180    8.9370 C.ar  131  PHE131     -0.0042
     62  CE1       23.8450   23.7110    9.9150 C.ar  131  PHE131     -0.0003
     63  CE2       26.1830   23.1740    9.6440 C.ar  131  PHE131     -0.0003
     64  CZ        25.1890   24.0190   10.1340 C.ar  131  PHE131     -0.0000
     65  N         14.1160   18.3610    9.9390 N.3   174  GLY174     -0.1225
     66  CA        15.1590   17.8040   10.7790 C.3   174  GLY174      0.1811
     67  C         16.0000   16.6960   10.1730 C.2   174  GLY174      0.2280
     68  O         17.1420   16.4780   10.5920 O.2   174  GLY174     -0.2866
     69  N         18.0390   18.6540    6.4090 N.3   178  PHE178     -0.1241
     70  CA        19.3090   18.6690    7.1040 C.3   178  PHE178      0.1605
     71  C         20.4030   17.9940    6.2870 C.2   178  PHE178      0.2264
     72  O         21.5650   18.3870    6.3630 O.2   178  PHE178     -0.2867
     73  CB        19.1970   17.9680    8.4660 C.3   178  PHE178      0.0534
     74  CG        20.4440   18.0610    9.3050 C.ar  178  PHE178     -0.0203
     75  CD1       20.6010   19.0960   10.2280 C.ar  178  PHE178     -0.0042
     76  CD2       21.4350   17.1010    9.2030 C.ar  178  PHE178     -0.0042
     77  CE1       21.7350   19.1690   11.0440 C.ar  178  PHE178     -0.0003
     78  CE2       22.5730   17.1610   10.0100 C.ar  178  PHE178     -0.0003
     79  CZ        22.7210   18.1940   10.9300 C.ar  178  PHE178     -0.0000
@<TRIPOS>BOND
     1    19    17    1
     2    57    56    2
     3    54    55    1
     4    35    36    1
     5    56    55    1
     6    17    18    1
     7    17    16    1
     8    71    72    2
     9    71    70    1
    10    36    37    1
    11    36    39    1
    12    69    70    1
    13    55    58    1
    14    13    16    1
    15    13    12    1
    16    13    14    1
    17    37    38    2
    18    70    73    1
    19    39    40    1
    20    23    22    2
    21    25    24    1
    22    49    48    2
    23    20    14   am
    24    20    21    1
    25    58    59    1
    26    14    15    2
    27    48    47    1
    28    28    29    2
    29    28    27    1
    30    73    74    1
    31    22    21    1
    32    22    26   am
    33    40    41   ar
    34    40    42   ar
    35    59    61   ar
    36    59    60   ar
    37    41    43   ar
    38    21    24    1
    39    61    63   ar
    40    46    47    1
    41    76    74   ar
    42    76    78   ar
    43    60    62   ar
    44    47    50    1
    45    27    26    1
    46    27    30    1
    47    74    75   ar
    48    63    64   ar
    49    42    44   ar
    50    43    45   ar
    51    62    64   ar
    52    65    66    1
    53    78    79   ar
    54     8     7    2
    55    67    68    2
    56    67    66    1
    57    75    77   ar
    58    31    30    1
    59    31    32    1
    60    50    52    1
    61    50    51    1
    62    44    45   ar
    63    79    77   ar
    64     7     6    1
    65    34    32   am
    66    32    33    2
    67    51    53    1
    68     9     6    1
    69     9    10    1
    70     9    11    1
    71     6     5    1
    72     4     3    2
    73     3     2    1
    74     2     1    1
