@<TRIPOS>MOLECULE
tmp/2qxfA00.pdb
 130 125 0 0 0
SMALL
GASTEIGER

@<TRIPOS>ATOM
      1  N         21.6680   28.2220   23.7080 N.3     9  ASP9       -0.1225
      2  CA        22.8430   28.6280   22.9570 C.3     9  ASP9        0.1805
      3  C         23.8600   29.2670   23.8770 C.2     9  ASP9        0.2598
      4  O         23.4880   30.0600   24.7610 O.2     9  ASP9       -0.2718
      5  CB        22.4210   29.6460   21.8980 C.3     9  ASP9        0.1424
      6  CG        23.5100   29.9800   20.9190 C.2     9  ASP9        0.3668
      7  OD1       24.0980   29.0590   20.3080 O.co2   9  ASP9       -0.2456
      8  OD2       23.7790   31.1880   20.7490 O.co2   9  ASP9       -0.2456
      9  N         25.1300   28.9130   23.6620 N.am   10  TYR10      -0.1962
     10  CA        26.2550   29.6080   24.3280 C.3    10  TYR10       0.1771
     11  C         26.9250   30.6460   23.4590 C.2    10  TYR10       0.2619
     12  O         27.0430   30.4580   22.2360 O.2    10  TYR10      -0.2715
     13  CB        27.3500   28.6520   24.7110 C.3    10  TYR10       0.0574
     14  CG        27.0530   27.6370   25.7590 C.ar   10  TYR10      -0.0198
     15  CD1       27.2510   27.9090   27.1270 C.ar   10  TYR10      -0.0009
     16  CD2       26.5780   26.3660   25.3820 C.ar   10  TYR10      -0.0009
     17  CE1       26.9810   26.9230   28.1150 C.ar   10  TYR10       0.0417
     18  CE2       26.3020   25.3690   26.3540 C.ar   10  TYR10       0.0417
     19  CZ        26.5020   25.6530   27.7140 C.ar   10  TYR10       0.1957
     20  OH        26.2440   24.6980   28.6750 O.3    10  TYR10      -0.2866
     21  N         27.3590   31.7390   24.0970 N.am   11  GLU11      -0.1963
     22  CA        28.4120   32.5790   23.5290 C.3    11  GLU11       0.1733
     23  C         29.6290   32.2540   24.3430 C.2    11  GLU11       0.2617
     24  O         29.5150   32.1230   25.5590 O.2    11  GLU11      -0.2715
     25  CB        28.1000   34.0650   23.5490 C.3    11  GLU11       0.0429
     26  CG        26.8580   34.4340   22.7410 C.3    11  GLU11       0.1163
     27  CD        26.9090   34.2210   21.2110 C.2    11  GLU11       0.3649
     28  OE1       27.9680   33.9970   20.5930 O.co2  11  GLU11      -0.2457
     29  OE2       25.7790   34.2930   20.5940 O.co2  11  GLU11      -0.2457
     30  N         30.7610   32.1050   23.6640 N.am   12  THR12      -0.1951
     31  CA        32.0160   31.6540   24.2990 C.3    12  THR12       0.1897
     32  C         33.1620   32.5990   23.9800 C.2    12  THR12       0.2313
     33  O         33.0480   33.5040   23.1190 O.2    12  THR12      -0.2863
     34  CB        32.4100   30.2210   23.8690 C.3    12  THR12       0.1794
     35  OG1       32.7350   30.2590   22.4930 O.3    12  THR12      -0.2208
     36  CG2       31.2610   29.1710   24.1490 C.3    12  THR12       0.0378
     37  N         35.9880   31.4260   22.7900 N.3    14  GLY14      -0.1210
     38  CA        36.7270   30.7840   21.7100 C.3    14  GLY14       0.1956
     39  C         36.0470   29.5190   21.2560 C.2    14  GLY14       0.2612
     40  O         35.0080   29.1170   21.7830 O.2    14  GLY14      -0.2717
     41  N         36.6560   28.8860   20.2440 N.am   15  THR15      -0.1952
     42  CA        35.9480   27.7460   19.6280 C.3    15  THR15       0.1897
     43  C         36.3110   26.3980   20.2390 C.2    15  THR15       0.2313
     44  O         35.6710   25.4040   19.8700 O.2    15  THR15      -0.2863
     45  CB        36.1590   27.6440   18.1110 C.3    15  THR15       0.1794
     46  OG1       37.5610   27.5860   17.8590 O.3    15  THR15      -0.2208
     47  CG2       35.4880   28.8270   17.3780 C.3    15  THR15       0.0378
     48  N         40.0320   34.3700   23.3480 N.3    54  GLN54      -0.1245
     49  CA        40.4700   34.5170   21.9570 C.3    54  GLN54       0.1566
     50  C         39.9360   35.8580   21.4450 C.2    54  GLN54       0.2260
     51  O         38.7180   36.0670   21.4850 O.2    54  GLN54      -0.2867
     52  CB        40.0350   33.3400   21.0890 C.3    54  GLN54       0.0367
     53  CG        40.8200   32.0580   21.3750 C.3    54  GLN54       0.0905
     54  CD        42.2140   31.9790   20.7280 C.2    54  GLN54       0.2608
     55  OE1       42.7190   32.9280   20.1040 O.2    54  GLN54      -0.2717
     56  NE2       42.8420   30.8180   20.8810 N.am   54  GLN54      -0.0878
     57  N         39.4690   37.0060   18.4180 N.3    56  GLY56      -0.1210
     58  CA        38.4960   36.7290   17.3610 C.3    56  GLY56       0.1956
     59  C         37.0940   36.4220   17.8590 C.2    56  GLY56       0.2611
     60  O         36.1150   36.8970   17.2650 O.2    56  GLY56      -0.2717
     61  N         36.9950   35.6350   18.9430 N.am   57  ALA57      -0.1979
     62  CA        35.6980   35.3060   19.5400 C.3    57  ALA57       0.1597
     63  C         34.9760   36.5640   20.0620 C.2    57  ALA57       0.2287
     64  O         33.7770   36.7290   19.8210 O.2    57  ALA57      -0.2864
     65  CB        35.8620   34.3140   20.6470 C.3    57  ALA57       0.0319
     66  N         33.4520   38.7720   17.4190 N.3    60  ILE60      -0.1231
     67  CA        32.1950   38.1660   16.9420 C.3    60  ILE60       0.1692
     68  C         31.0470   38.4190   17.9310 C.2    60  ILE60       0.2592
     69  O         29.9760   38.9060   17.5180 O.2    60  ILE60      -0.2718
     70  CB        32.4180   36.6750   16.6060 C.3    60  ILE60       0.0266
     71  CG1       33.1000   36.6480   15.2620 C.3    60  ILE60       0.0019
     72  CG2       31.1040   35.8710   16.5720 C.3    60  ILE60       0.0020
     73  CD1       34.0590   35.6490   15.0730 C.3    60  ILE60       0.0001
     74  N         31.2630   38.0960   19.2070 N.am   61  THR61      -0.1953
     75  CA        30.1670   38.1020   20.1860 C.3    61  THR61       0.1897
     76  C         29.8390   39.4840   20.7060 C.2    61  THR61       0.2313
     77  O         28.6800   39.7560   21.0520 O.2    61  THR61      -0.2863
     78  CB        30.4920   37.2340   21.4140 C.3    61  THR61       0.1794
     79  OG1       31.6040   37.8050   22.1110 O.3    61  THR61      -0.2208
     80  CG2       30.8300   35.7940   21.0220 C.3    61  THR61       0.0378
     81  N         21.2580   24.9840   17.7890 N.3    96  TYR96      -0.1227
     82  CA        21.6440   25.0840   16.3950 C.3    96  TYR96       0.1736
     83  C         23.1350   24.9120   16.3500 C.2    96  TYR96       0.2595
     84  O         23.8860   25.8260   16.6920 O.2    96  TYR96      -0.2718
     85  CB        21.1910   26.4540   15.7890 C.3    96  TYR96       0.0548
     86  CG        21.2390   26.3670   14.2940 C.ar   96  TYR96      -0.0200
     87  CD1       20.1220   25.8880   13.5770 C.ar   96  TYR96      -0.0009
     88  CD2       22.4040   26.7480   13.5800 C.ar   96  TYR96      -0.0009
     89  CE1       20.1660   25.7890   12.1750 C.ar   96  TYR96       0.0417
     90  CE2       22.4450   26.6460   12.1960 C.ar   96  TYR96       0.0417
     91  CZ        21.3280   26.1700   11.4890 C.ar   96  TYR96       0.1957
     92  OH        21.3240   26.0500   10.1140 O.3    96  TYR96      -0.2866
     93  N         23.5540   23.7210   15.9130 N.am   97  ASN97      -0.1974
     94  CA        24.9620   23.2140   16.0240 C.3    97  ASN97       0.1688
     95  C         25.3530   22.7680   17.4460 C.2    97  ASN97       0.2292
     96  O         26.5560   22.6560   17.7650 O.2    97  ASN97      -0.2864
     97  CB        26.0010   24.2100   15.4490 C.3    97  ASN97       0.1181
     98  CG        27.3720   23.5660   15.1630 C.2    97  ASN97       0.2629
     99  OD1       28.4120   24.2090   15.4040 O.2    97  ASN97      -0.2716
    100  ND2       27.3930   22.3600   14.6820 N.am   97  ASN97      -0.0877
    101  N         28.9960   21.4870   18.9630 N.3   101  PHE101     -0.1227
    102  CA        29.5730   22.5900   19.7450 C.3   101  PHE101      0.1736
    103  C         28.9820   22.7400   21.1510 C.2   101  PHE101      0.2595
    104  O         29.6630   22.3780   22.1220 O.2   101  PHE101     -0.2718
    105  CB        29.5570   23.9320   18.9680 C.3   101  PHE101      0.0547
    106  CG        30.2470   25.0210   19.7140 C.ar  101  PHE101     -0.0202
    107  CD1       31.6480   24.9790   19.8680 C.ar  101  PHE101     -0.0042
    108  CD2       29.5080   26.0810   20.2750 C.ar  101  PHE101     -0.0042
    109  CE1       32.3260   25.9900   20.5830 C.ar  101  PHE101     -0.0003
    110  CE2       30.1650   27.1210   20.9950 C.ar  101  PHE101     -0.0003
    111  CZ        31.5730   27.0700   21.1410 C.ar  101  PHE101     -0.0000
    112  N         27.7580   23.2490   21.2690 N.am  102  ASP102     -0.1974
    113  CA        27.2290   23.5960   22.6050 C.3   102  ASP102      0.1709
    114  C         27.1900   22.4160   23.5490 C.2   102  ASP102      0.2293
    115  O         27.5020   22.5780   24.7130 O.2   102  ASP102     -0.2864
    116  CB        25.8500   24.2580   22.4940 C.3   102  ASP102      0.1436
    117  CG        25.8670   25.4340   21.5540 C.2   102  ASP102      0.3671
    118  OD1       25.8080   26.5880   22.0410 O.co2 102  ASP102     -0.2456
    119  OD2       25.9480   25.1630   20.3280 O.co2 102  ASP102     -0.2456
    120  N         24.5150   28.7580    7.9330 N.3   159  ARG159     -0.1245
    121  CA        24.6750   29.7260    9.0410 C.3   159  ARG159      0.1563
    122  C         23.2870   30.1930    9.4230 C.2   159  ARG159      0.2260
    123  O         22.4800   30.5650    8.5670 O.2   159  ARG159     -0.2867
    124  CB        25.5860   30.8800    8.6450 C.3   159  ARG159      0.0307
    125  CG        27.0950   30.5050    8.5550 C.3   159  ARG159      0.0489
    126  CD        27.8210   30.2240    9.9210 C.3   159  ARG159      0.2205
    127  NE        27.5300   31.1720   11.0220 N.pl3 159  ARG159     -0.0865
    128  CZ        27.7950   30.9730   12.3210 C.cat 159  ARG159      0.5346
    129  NH1       28.3750   29.8540   12.7800 N.pl3 159  ARG159      0.1354
    130  NH2       27.4660   31.9170   13.1840 N.pl3 159  ARG159      0.1354
@<TRIPOS>BOND
     1   120   121    1
     2   125   124    1
     3   125   126    1
     4   123   122    2
     5   124   121    1
     6   121   122    1
     7   126   127    1
     8    92    91    1
     9   127   128    2
    10    91    89   ar
    11    91    90   ar
    12    89    87   ar
    13    90    88   ar
    14   128   129    1
    15   128   130    1
    16    87    86   ar
    17    88    86   ar
    18    86    85    1
    19   100    98   am
    20    73    71    1
    21    98    99    2
    22    98    97    1
    23    71    70    1
    24    97    94    1
    25    85    82    1
    26    93    94    1
    27    93    83   am
    28    94    95    1
    29    83    82    1
    30    83    84    2
    31    82    81    1
    32    72    70    1
    33    70    67    1
    34    67    66    1
    35    67    68    1
    36    60    59    2
    37    58    59    1
    38    58    57    1
    39    47    45    1
    40    95    96    2
    41    69    68    2
    42    59    61   am
    43    46    45    1
    44    68    74   am
    45    45    42    1
    46    61    62    1
    47   101   102    1
    48   105   106    1
    49   105   102    1
    50    74    75    1
    51    62    63    1
    52    62    65    1
    53    42    43    1
    54    42    41    1
    55   106   107   ar
    56   106   108   ar
    57   102   103    1
    58    64    63    2
    59   107   109   ar
    60    44    43    2
    61    55    54    2
    62    75    76    1
    63    75    78    1
    64    41    39   am
    65   108   110   ar
    66     7     6   ar
    67   119   117   ar
    68   109   111   ar
    69    28    27   ar
    70    29    27   ar
    71    76    77    2
    72    54    56   am
    73    54    53    1
    74     8     6   ar
    75     6     5    1
    76   110   111   ar
    77    80    78    1
    78    52    53    1
    79    52    49    1
    80   103   112   am
    81   103   104    2
    82    27    26    1
    83    39    38    1
    84    39    40    2
    85   112   113    1
    86    78    79    1
    87    50    51    2
    88    50    49    1
    89   117   118   ar
    90   117   116    1
    91    38    37    1
    92     5     2    1
    93    49    48    1
    94    12    11    2
    95    35    34    1
    96   116   113    1
    97   113   114    1
    98    26    25    1
    99     2     1    1
   100     2     3    1
   101    33    32    2
   102    11    21   am
   103    11    10    1
   104    22    25    1
   105    22    21    1
   106    22    23    1
   107   114   115    2
   108     9     3   am
   109     9    10    1
   110    30    31    1
   111    30    23   am
   112    34    36    1
   113    34    31    1
   114     3     4    2
   115    32    31    1
   116    10    13    1
   117    23    24    2
   118    13    14    1
   119    16    14   ar
   120    16    18   ar
   121    14    15   ar
   122    18    19   ar
   123    15    17   ar
   124    19    17   ar
   125    19    20    1
