@<TRIPOS>MOLECULE
tmp/2qxgA00.pdb
 134 135 0 0 0
SMALL
GASTEIGER

@<TRIPOS>ATOM
      1  N        -15.7490   -1.2320   34.6230 N.3    25  HIS25      -0.1226
      2  CA       -15.2240   -2.5660   34.8870 C.3    25  HIS25       0.1752
      3  C        -13.6970   -2.5650   34.8550 C.2    25  HIS25       0.2596
      4  O        -13.0500   -3.1080   35.7490 O.2    25  HIS25      -0.2718
      5  CB       -15.7790   -3.5640   33.8660 C.3    25  HIS25       0.0759
      6  CG       -15.2600   -4.9580   34.0380 C.ar   25  HIS25       0.0818
      7  ND1      -14.2550   -5.4800   33.2540 N.ar   25  HIS25      -0.2268
      8  CD2      -15.6020   -5.9350   34.9110 C.ar   25  HIS25       0.1154
      9  CE1      -14.0000   -6.7210   33.6340 C.ar   25  HIS25       0.1986
     10  NE2      -14.8040   -7.0200   34.6390 N.ar   25  HIS25      -0.2212
     11  N        -13.1300   -1.9470   33.8240 N.am   26  CYS26      -0.1970
     12  CA       -11.6800   -1.8610   33.6650 C.3    26  CYS26       0.1712
     13  C        -11.3270   -0.6910   32.7540 C.2    26  CYS26       0.2296
     14  O        -12.1750    0.1380   32.4240 O.2    26  CYS26      -0.2864
     15  CB       -11.1200   -3.1480   33.0440 C.3    26  CYS26       0.0983
     16  SG       -11.0000   -4.6070   34.1320 S.3    26  CYS26      -0.0798
     17  N         -7.4340  -10.4330   32.6170 N.3    41  HIS41      -0.1226
     18  CA        -8.3180  -10.7800   33.7270 C.3    41  HIS41       0.1752
     19  C         -9.5630   -9.8960   33.7340 C.2    41  HIS41       0.2596
     20  O        -10.3950   -9.9870   34.6350 O.2    41  HIS41      -0.2718
     21  CB        -7.5930  -10.7210   35.0910 C.3    41  HIS41       0.0759
     22  CG        -7.3490   -9.3360   35.6150 C.ar   41  HIS41       0.0818
     23  ND1       -6.1730   -8.6540   35.3930 N.ar   41  HIS41      -0.2268
     24  CD2       -8.1120   -8.5280   36.3900 C.ar   41  HIS41       0.1154
     25  CE1       -6.2200   -7.4870   36.0120 C.ar   41  HIS41       0.1986
     26  NE2       -7.3850   -7.3830   36.6240 N.ar   41  HIS41      -0.2212
     27  N         -9.6880   -9.0530   32.7090 N.am   42  CYS42      -0.1970
     28  CA       -10.8380   -8.1590   32.5580 C.3    42  CYS42       0.1712
     29  C        -11.8080   -8.7370   31.5260 C.2    42  CYS42       0.2296
     30  O        -12.7030   -8.0440   31.0430 O.2    42  CYS42      -0.2864
     31  CB       -10.3940   -6.7680   32.0820 C.3    42  CYS42       0.0983
     32  SG        -9.5210   -5.7200   33.2930 S.3    42  CYS42      -0.0798
     33  N         -1.5270  -14.9610   36.6900 N.3    80  HIS80      -0.1241
     34  CA        -1.7620  -13.7200   35.9610 C.3    80  HIS80       0.1621
     35  C         -0.5550  -13.2930   35.1280 C.2    80  HIS80       0.2264
     36  O         -0.3290  -12.1020   34.9230 O.2    80  HIS80      -0.2867
     37  CB        -2.1350  -12.5930   36.9290 C.3    80  HIS80       0.0745
     38  CG        -3.4130  -12.8280   37.6750 C.ar   80  HIS80       0.0817
     39  ND1       -4.6420  -12.8810   37.0530 N.ar   80  HIS80      -0.2268
     40  CD2       -3.6510  -13.0110   38.9940 C.ar   80  HIS80       0.1154
     41  CE1       -5.5820  -13.0850   37.9580 C.ar   80  HIS80       0.1986
     42  NE2       -5.0080  -13.1670   39.1440 N.ar   80  HIS80      -0.2212
     43  N         -0.3500    4.6920   43.5220 N.3   170  ASN170     -0.1225
     44  CA        -0.4950    3.4020   42.8610 C.3   170  ASN170      0.1785
     45  C         -1.8440    3.2360   42.1610 C.2   170  ASN170      0.2597
     46  O         -2.6460    4.1680   42.1000 O.2   170  ASN170     -0.2718
     47  CB        -0.3020    2.2860   43.8890 C.3   170  ASN170      0.1169
     48  CG         0.4390    1.0970   43.3240 C.2   170  ASN170      0.2627
     49  OD1        0.8650    0.2100   44.0620 O.2   170  ASN170     -0.2716
     50  ND2        0.5960    1.0690   42.0060 N.am  170  ASN170     -0.0877
     51  N         -2.0780    2.0410   41.6260 N.am  171  ALA171     -0.1966
     52  CA        -3.3230    1.7300   40.9310 C.3   171  ALA171      0.1728
     53  C         -4.2100    0.8980   41.8470 C.2   171  ALA171      0.2616
     54  O         -3.7670    0.4500   42.9050 O.2   171  ALA171     -0.2715
     55  CB        -3.0290    0.9630   39.6480 C.3   171  ALA171      0.0334
     56  N         -5.4590    0.6890   41.4450 N.am  172  CYS172     -0.1954
     57  CA        -6.3740   -0.0920   42.2660 C.3   172  CYS172      0.1843
     58  C         -7.5480   -0.6570   41.4810 C.2   172  CYS172      0.2625
     59  O         -7.5480   -0.6780   40.2490 O.2   172  CYS172     -0.2714
     60  CB        -6.9010    0.7660   43.4190 C.3   172  CYS172      0.0997
     61  SG        -7.5680   -0.1550   44.8450 S.3   172  CYS172     -0.0797
     62  N         -8.5460   -1.1130   42.2280 N.am  173  ASN173     -0.1958
     63  CA        -9.7610   -1.7030   41.6870 C.3   173  ASN173      0.1819
     64  C        -10.3750   -0.8560   40.5770 C.2   173  ASN173      0.2621
     65  O        -10.8080    0.2720   40.8120 O.2   173  ASN173     -0.2715
     66  CB       -10.7690   -1.8860   42.8230 C.3   173  ASN173      0.1195
     67  CG       -11.5360   -3.1850   42.7200 C.2   173  ASN173      0.2630
     68  OD1      -12.3590   -3.3660   41.8240 O.2   173  ASN173     -0.2716
     69  ND2      -11.2640   -4.1040   43.6390 N.am  173  ASN173     -0.0877
     70  N        -10.4060   -1.4060   39.3670 N.am  174  GLY174     -0.1954
     71  CA       -10.9800   -0.6910   38.2420 C.3   174  GLY174      0.1869
     72  C         -9.9770   -0.0530   37.2970 C.2   174  GLY174      0.2309
     73  O        -10.3730    0.5440   36.2960 O.2   174  GLY174     -0.2863
     74  N         -7.2460   -1.8680   35.9440 N.3   176  SER176     -0.1217
     75  CA        -6.6460   -2.8840   35.0730 C.3   176  SER176      0.1889
     76  C         -6.8560   -2.5390   33.6020 C.2   176  SER176      0.2288
     77  O         -7.9460   -2.1330   33.2060 O.2   176  SER176     -0.2866
     78  CB        -7.2620   -4.2640   35.3310 C.3   176  SER176      0.2089
     79  OG        -6.9560   -4.7780   36.6170 O.3   176  SER176     -0.2183
     80  N         -1.8250   -1.8390   33.6460 N.3   190  VAL190     -0.1231
     81  CA        -2.0470   -2.2270   35.0370 C.3   190  VAL190      0.1692
     82  C         -2.4490   -3.6960   35.1320 C.2   190  VAL190      0.2593
     83  O         -3.2430   -4.1790   34.3250 O.2   190  VAL190     -0.2718
     84  CB        -3.1610   -1.3910   35.6940 C.3   190  VAL190      0.0266
     85  CG1       -3.2830   -1.7650   37.1630 C.3   190  VAL190      0.0020
     86  CG2       -2.8660    0.0900   35.5430 C.3   190  VAL190      0.0020
     87  N         -1.9040   -4.4060   36.1160 N.am  191  SER191     -0.1938
     88  CA        -2.2360   -5.8160   36.2870 C.3   191  SER191      0.2055
     89  C         -2.6080   -6.2070   37.7140 C.2   191  SER191      0.2643
     90  O         -3.7410   -6.6180   37.9660 O.2   191  SER191     -0.2714
     91  CB        -1.0880   -6.7030   35.8080 C.3   191  SER191      0.2130
     92  OG        -1.4460   -8.0710   35.9130 O.3   191  SER191     -0.2179
     93  N         -1.6650   -6.0940   38.6470 N.am  192  TRP192     -0.1959
     94  CA        -1.9520   -6.4650   40.0290 C.3   192  TRP192      0.1771
     95  C         -1.0250   -5.8640   41.0790 C.2   192  TRP192      0.2620
     96  O          0.0530   -5.3550   40.7710 O.2   192  TRP192     -0.2715
     97  CB        -1.9370   -7.9890   40.1800 C.3   192  TRP192      0.0590
     98  CG        -0.6110   -8.6180   39.8560 C.ar  192  TRP192      0.0006
     99  CD1       -0.1340   -8.9350   38.6160 C.ar  192  TRP192      0.0946
    100  CD2        0.4180   -8.9810   40.7860 C.ar  192  TRP192      0.0152
    101  NE1        1.1270   -9.4740   38.7160 N.ar  192  TRP192     -0.2442
    102  CE2        1.4900   -9.5130   40.0360 C.ar  192  TRP192      0.0810
    103  CE3        0.5380   -8.9080   42.1810 C.ar  192  TRP192      0.0012
    104  CZ2        2.6710   -9.9700   40.6350 C.ar  192  TRP192      0.0191
    105  CZ3        1.7130   -9.3630   42.7760 C.ar  192  TRP192      0.0001
    106  CH2        2.7630   -9.8870   42.0010 C.ar  192  TRP192      0.0015
    107  N         -1.4690   -5.9440   42.3290 N.am  193  GLY193     -0.1940
    108  CA        -0.7050   -5.4300   43.4490 C.3   193  GLY193      0.2014
    109  C         -1.2610   -6.0240   44.7270 C.2   193  GLY193      0.2640
    110  O         -1.8800   -7.0880   44.7000 O.2   193  GLY193     -0.2714
    111  N         -1.0490   -5.3520   45.8520 N.am  194  THR194     -0.1936
    112  CA        -1.5640   -5.8540   47.1160 C.3   194  THR194      0.2028
    113  C         -2.8380   -5.1100   47.5110 C.2   194  THR194      0.2642
    114  O         -3.1220   -4.0280   46.9980 O.2   194  THR194     -0.2714
    115  CB        -0.5030   -5.7400   48.2380 C.3   194  THR194      0.1808
    116  OG1        0.1290   -4.4560   48.1830 O.3   194  THR194     -0.2208
    117  CG2        0.5500   -6.8290   48.0800 C.3   194  THR194      0.0379
    118  N         -3.6140   -5.7100   48.4080 N.am  195  PHE195     -0.1973
    119  CA        -4.8650   -5.1210   48.8750 C.3   195  PHE195      0.1639
    120  C         -4.8770   -5.1810   50.3990 C.2   195  PHE195      0.2290
    121  O         -4.5430   -6.2110   50.9830 O.2   195  PHE195     -0.2864
    122  CB        -6.0530   -5.9000   48.2910 C.3   195  PHE195      0.0560
    123  CG        -7.3970   -5.3230   48.6410 C.ar  195  PHE195     -0.0200
    124  CD1       -8.0490   -5.6920   49.8140 C.ar  195  PHE195     -0.0042
    125  CD2       -8.0090   -4.4000   47.7980 C.ar  195  PHE195     -0.0042
    126  CE1       -9.2920   -5.1500   50.1430 C.ar  195  PHE195     -0.0003
    127  CE2       -9.2500   -3.8510   48.1170 C.ar  195  PHE195     -0.0003
    128  CZ        -9.8930   -4.2270   49.2930 C.ar  195  PHE195     -0.0000
    129  N         -5.1180   -1.3550   48.6470 N.3   197  CYS197     -0.1235
    130  CA        -4.2550   -0.6900   47.6770 C.3   197  CYS197      0.1677
    131  C         -3.4530    0.4510   48.2940 C.2   197  CYS197      0.2270
    132  O         -3.8250    0.9990   49.3310 O.2   197  CYS197     -0.2867
    133  CB        -5.0800   -0.1070   46.5330 C.3   197  CYS197      0.0956
    134  SG        -5.9820   -1.2620   45.4610 S.3   197  CYS197     -0.0801
@<TRIPOS>BOND
     1    30    29    2
     2    29    28    1
     3    31    28    1
     4    31    32    1
     5    14    13    2
     6    28    27    1
     7    17    18    1
     8    27    19   am
     9    13    12    1
    10    15    12    1
    11    15    16    1
    12    77    76    2
    13     7     9   ar
    14     7     6   ar
    15    32    16    1
    16    76    75    1
    17     9    10   ar
    18    80    81    1
    19    12    11    1
    20    18    19    1
    21    18    21    1
    22    19    20    2
    23    11     3   am
    24     5     6    1
    25     5     2    1
    26     6     8   ar
    27    83    82    2
    28     1     2    1
    29    10     8   ar
    30     3     2    1
    31     3     4    2
    32    36    35    2
    33    81    82    1
    34    81    84    1
    35    75    78    1
    36    75    74    1
    37    21    22    1
    38    35    34    1
    39    82    87   am
    40    78    79    1
    41    23    22   ar
    42    23    25   ar
    43    86    84    1
    44    22    24   ar
    45    84    85    1
    46    91    92    1
    47    91    88    1
    48    34    33    1
    49    34    37    1
    50    25    26   ar
    51    87    88    1
    52    88    89    1
    53    73    72    2
    54    24    26   ar
    55    37    38    1
    56    39    38   ar
    57    39    41   ar
    58    72    71    1
    59    38    40   ar
    60    89    90    2
    61    89    93   am
    62    41    42   ar
    63    71    70    1
    64    99   101   ar
    65    99    98   ar
    66    93    94    1
    67   101   102   ar
    68    40    42   ar
    69    70    64   am
    70    55    52    1
    71    98    97    1
    72    98   100   ar
    73    94    97    1
    74    94    95    1
    75   102   104   ar
    76   102   100   ar
    77    59    58    2
    78    64    65    2
    79    64    63    1
    80   104   106   ar
    81    96    95    2
    82   100   103   ar
    83    52    51    1
    84    52    53    1
    85    95   107   am
    86    56    53   am
    87    56    57    1
    88    58    62   am
    89    58    57    1
    90    51    45   am
    91    63    62    1
    92    63    66    1
    93    68    67    2
    94    53    54    2
    95   106   105   ar
    96    50    48   am
    97    46    45    2
    98    45    44    1
    99   103   105   ar
   100    57    60    1
   101   107   108    1
   102    67    66    1
   103    67    69   am
   104    44    43    1
   105    44    47    1
   106    48    47    1
   107    48    49    2
   108    60    61    1
   109   108   109    1
   110   110   109    2
   111   109   111   am
   112    61   134    1
   113   134   133    1
   114   111   112    1
   115   133   130    1
   116   114   113    2
   117   112   113    1
   118   112   115    1
   119   113   118   am
   120   130   131    1
   121   130   129    1
   122   125   127   ar
   123   125   123   ar
   124   117   115    1
   125   127   128   ar
   126   116   115    1
   127   122   123    1
   128   122   119    1
   129   131   132    2
   130   118   119    1
   131   123   124   ar
   132   119   120    1
   133   128   126   ar
   134   124   126   ar
   135   120   121    2
