@<TRIPOS>MOLECULE
tmp/2qxhA00.pdb
 159 157 0 0 0
SMALL
GASTEIGER

@<TRIPOS>ATOM
      1  N         -2.3470    4.7490    6.8390 N.3    25  HIS25      -0.1226
      2  CA        -3.2750    4.7810    7.9540 C.3    25  HIS25       0.1752
      3  C         -2.9380    3.6040    8.8730 C.2    25  HIS25       0.2596
      4  O         -2.7870    3.7720   10.0760 O.2    25  HIS25      -0.2718
      5  CB        -4.7240    4.6690    7.4630 C.3    25  HIS25       0.0759
      6  CG        -5.7420    4.8380    8.5480 C.ar   25  HIS25       0.0818
      7  ND1       -5.8550    5.9960    9.2860 N.ar   25  HIS25      -0.2268
      8  CD2       -6.6840    3.9910    9.0310 C.ar   25  HIS25       0.1154
      9  CE1       -6.8210    5.8540   10.1790 C.ar   25  HIS25       0.1986
     10  NE2       -7.3390    4.6470   10.0440 N.ar   25  HIS25      -0.2212
     11  N         -2.8110    2.4140    8.2930 N.am   26  CYS26      -0.1970
     12  CA        -2.5070    1.2100    9.0650 C.3    26  CYS26       0.1712
     13  C         -1.9210    0.1090    8.1850 C.2    26  CYS26       0.2296
     14  O         -1.9510    0.1940    6.9550 O.2    26  CYS26      -0.2864
     15  CB        -3.7750    0.6520    9.7090 C.3    26  CYS26       0.0983
     16  SG        -4.4430    1.5350   11.1520 S.3    26  CYS26      -0.0798
     17  N         -9.4640   -0.7740   15.1360 N.3    41  HIS41      -0.1226
     18  CA        -9.3240    0.6490   15.4220 C.3    41  HIS41       0.1752
     19  C         -8.8670    1.4290   14.1930 C.2    41  HIS41       0.2596
     20  O         -8.7580    2.6580   14.2230 O.2    41  HIS41      -0.2718
     21  CB        -8.3950    0.9080   16.6300 C.3    41  HIS41       0.0759
     22  CG        -6.9280    0.7570   16.3540 C.ar   41  HIS41       0.0818
     23  ND1       -6.2130   -0.3500   16.7410 N.ar   41  HIS41      -0.2268
     24  CD2       -6.0210    1.6080   15.8110 C.ar   41  HIS41       0.1154
     25  CE1       -4.9420   -0.1530   16.4410 C.ar   41  HIS41       0.1986
     26  NE2       -4.8170    1.0440   15.8700 N.ar   41  HIS41      -0.2212
     27  N         -8.6310    0.7050   13.1040 N.am   42  CYS42      -0.1970
     28  CA        -8.2070    1.3110   11.8480 C.3    42  CYS42       0.1712
     29  C         -9.4010    1.5810   10.9410 C.2    42  CYS42       0.2296
     30  O         -9.2350    2.0010    9.8030 O.2    42  CYS42      -0.2864
     31  CB        -7.2320    0.3860   11.1260 C.3    42  CYS42       0.0983
     32  SG        -5.6600    0.1520   12.0050 S.3    42  CYS42      -0.0798
     33  N        -10.4040   -1.6990   23.2470 N.3    80  HIS80      -0.1241
     34  CA        -9.7340   -2.2700   22.0840 C.3    80  HIS80       0.1621
     35  C         -9.6580   -3.7880   22.1300 C.2    80  HIS80       0.2264
     36  O         -8.8200   -4.4040   21.4700 O.2    80  HIS80      -0.2867
     37  CB        -8.3390   -1.6690   21.9290 C.3    80  HIS80       0.0745
     38  CG        -8.3610   -0.1870   21.7380 C.ar   80  HIS80       0.0817
     39  ND1       -9.0470    0.4150   20.7060 N.ar   80  HIS80      -0.2268
     40  CD2       -7.8430    0.8170   22.4840 C.ar   80  HIS80       0.1154
     41  CE1       -8.9540    1.7270   20.8250 C.ar   80  HIS80       0.1986
     42  NE2       -8.2310    1.9970   21.8950 N.ar   80  HIS80      -0.2212
     43  N         -5.8480   -3.5870   31.6980 N.3   154  LEU154     -0.1245
     44  CA        -5.8870   -3.2220   30.2810 C.3   154  LEU154      0.1561
     45  C         -5.8660   -4.4670   29.4000 C.2   154  LEU154      0.2260
     46  O         -6.3160   -4.4340   28.2560 O.2   154  LEU154     -0.2867
     47  CB        -4.6980   -2.3270   29.9070 C.3   154  LEU154      0.0270
     48  CG        -4.5140   -1.0000   30.6510 C.3   154  LEU154      0.0019
     49  CD1       -3.4750   -0.1620   29.9110 C.3   154  LEU154      0.0001
     50  CD2       -5.8290   -0.2490   30.7390 C.3   154  LEU154      0.0001
     51  N          9.8530   -2.5220   19.0950 N.3   170  ASN170     -0.1225
     52  CA         8.4050   -2.6080   19.2470 C.3   170  ASN170      0.1785
     53  C          7.6680   -1.9920   18.0650 C.2   170  ASN170      0.2597
     54  O          8.2830   -1.4740   17.1340 O.2   170  ASN170     -0.2718
     55  CB         8.0120   -1.8790   20.5330 C.3   170  ASN170      0.1169
     56  CG         6.9690   -2.6190   21.3340 C.2   170  ASN170      0.2627
     57  OD1        6.8940   -2.4680   22.5580 O.2   170  ASN170     -0.2716
     58  ND2        6.1490   -3.4130   20.6570 N.am  170  ASN170     -0.0877
     59  N          6.3420   -2.0560   18.1140 N.am  171  ALA171     -0.1966
     60  CA         5.5080   -1.4830   17.0680 C.3   171  ALA171      0.1728
     61  C          5.1470   -0.0770   17.5260 C.2   171  ALA171      0.2616
     62  O          5.3300    0.2620   18.6980 O.2   171  ALA171     -0.2715
     63  CB         4.2440   -2.3170   16.8840 C.3   171  ALA171      0.0334
     64  N          4.6380    0.7400   16.6100 N.am  172  CYS172     -0.1954
     65  CA         4.2560    2.1040   16.9440 C.3   172  CYS172      0.1843
     66  C          3.1490    2.5530   16.0030 C.2   172  CYS172      0.2625
     67  O          2.6430    1.7650   15.2050 O.2   172  CYS172     -0.2714
     68  CB         5.4660    3.0290   16.8250 C.3   172  CYS172      0.0997
     69  SG         5.3260    4.6420   17.6640 S.3   172  CYS172     -0.0797
     70  N          2.7760    3.8190   16.0980 N.am  173  ASN173     -0.1958
     71  CA         1.7090    4.3620   15.2740 C.3   173  ASN173      0.1819
     72  C          1.9260    4.0860   13.7890 C.2   173  ASN173      0.2621
     73  O          3.0260    4.2620   13.2640 O.2   173  ASN173     -0.2715
     74  CB         1.5830    5.8570   15.5510 C.3   173  ASN173      0.1195
     75  CG         1.2270    6.1330   16.9930 C.2   173  ASN173      0.2630
     76  OD1        0.0480    6.1600   17.3630 O.2   173  ASN173     -0.2716
     77  ND2        2.2440    6.3030   17.8300 N.am  173  ASN173     -0.0877
     78  N          0.8650    3.6300   13.1280 N.am  174  GLY174     -0.1954
     79  CA         0.9450    3.3210   11.7160 C.3   174  GLY174      0.1869
     80  C          1.1760    1.8440   11.4530 C.2   174  GLY174      0.2309
     81  O          0.9750    1.3810   10.3320 O.2   174  GLY174     -0.2863
     82  N         -0.4160   -0.6600   13.2070 N.3   176  SER176     -0.1217
     83  CA        -1.6120   -1.4390   13.5230 C.3   176  SER176      0.1889
     84  C         -2.1120   -2.2910   12.3830 C.2   176  SER176      0.2288
     85  O         -2.0340   -1.8850   11.2300 O.2   176  SER176     -0.2866
     86  CB        -2.7390   -0.5200   13.9330 C.3   176  SER176      0.2089
     87  OG        -2.4660   -0.0330   15.2550 O.3   176  SER176     -0.2183
     88  N         -0.8700   -6.2610   14.9920 N.3   190  VAL190     -0.1231
     89  CA        -0.4990   -5.1490   15.8680 C.3   190  VAL190      0.1692
     90  C         -1.7580   -4.4190   16.3300 C.2   190  VAL190      0.2593
     91  O         -2.5800   -4.0260   15.5080 O.2   190  VAL190     -0.2718
     92  CB         0.4220   -4.1400   15.1380 C.3   190  VAL190      0.0266
     93  CG1        0.7740   -2.9860   16.0710 C.3   190  VAL190      0.0020
     94  CG2        1.6870   -4.8380   14.6510 C.3   190  VAL190      0.0020
     95  N         -1.9060   -4.2430   17.6420 N.am  191  SER191     -0.1938
     96  CA        -3.0740   -3.5470   18.1900 C.3   191  SER191      0.2055
     97  C         -2.7030   -2.2890   18.9750 C.2   191  SER191      0.2643
     98  O         -3.0450   -1.1820   18.5640 O.2   191  SER191     -0.2714
     99  CB        -3.8920   -4.4780   19.0890 C.3   191  SER191      0.2130
    100  OG        -5.0540   -3.8160   19.5690 O.3   191  SER191     -0.2179
    101  N         -2.0130   -2.4520   20.1020 N.am  192  TRP192     -0.1959
    102  CA        -1.6200   -1.2990   20.8990 C.3   192  TRP192      0.1771
    103  C         -0.3390   -1.4760   21.7100 C.2   192  TRP192      0.2620
    104  O          0.2910   -2.5300   21.6900 O.2   192  TRP192     -0.2715
    105  CB        -2.7660   -0.8750   21.8350 C.3   192  TRP192      0.0590
    106  CG        -3.2420   -1.9210   22.8180 C.ar  192  TRP192      0.0006
    107  CD1       -4.1830   -2.8890   22.5960 C.ar  192  TRP192      0.0946
    108  CD2       -2.8430   -2.0590   24.1910 C.ar  192  TRP192      0.0152
    109  NE1       -4.4020   -3.6110   23.7470 N.ar  192  TRP192     -0.2442
    110  CE2       -3.5940   -3.1250   24.7400 C.ar  192  TRP192      0.0810
    111  CE3       -1.9260   -1.3820   25.0140 C.ar  192  TRP192      0.0012
    112  CZ2       -3.4590   -3.5340   26.0780 C.ar  192  TRP192      0.0191
    113  CZ3       -1.7910   -1.7860   26.3460 C.ar  192  TRP192      0.0001
    114  CH2       -2.5570   -2.8560   26.8610 C.ar  192  TRP192      0.0015
    115  N          0.0380   -0.4130   22.4090 N.am  193  GLY193     -0.1940
    116  CA         1.2330   -0.4210   23.2370 C.3   193  GLY193      0.2014
    117  C          1.2010    0.8600   24.0430 C.2   193  GLY193      0.2640
    118  O          0.1590    1.5060   24.1180 O.2   193  GLY193     -0.2714
    119  N          2.3190    1.2390   24.6470 N.am  194  THR194     -0.1936
    120  CA         2.3330    2.4700   25.4220 C.3   194  THR194      0.2028
    121  C          2.8950    3.6220   24.6000 C.2   194  THR194      0.2642
    122  O          3.5010    3.4070   23.5520 O.2   194  THR194     -0.2714
    123  CB         3.1350    2.3060   26.7340 C.3   194  THR194      0.1808
    124  OG1        4.4160    1.7270   26.4600 O.3   194  THR194     -0.2208
    125  CG2        2.3760    1.4110   27.6920 C.3   194  THR194      0.0379
    126  N          2.6660    4.8450   25.0730 N.am  195  PHE195     -0.1973
    127  CA         3.1320    6.0450   24.3870 C.3   195  PHE195      0.1639
    128  C          3.9170    6.9300   25.3550 C.2   195  PHE195      0.2290
    129  O          3.4690    7.1840   26.4740 O.2   195  PHE195     -0.2864
    130  CB         1.9390    6.8330   23.8330 C.3   195  PHE195      0.0560
    131  CG         2.3320    8.0640   23.0560 C.ar  195  PHE195     -0.0200
    132  CD1        2.7500    7.9630   21.7270 C.ar  195  PHE195     -0.0042
    133  CD2        2.3180    9.3220   23.6620 C.ar  195  PHE195     -0.0042
    134  CE1        3.1530    9.1020   21.0100 C.ar  195  PHE195     -0.0003
    135  CE2        2.7210   10.4650   22.9540 C.ar  195  PHE195     -0.0003
    136  CZ         3.1370   10.3520   21.6290 C.ar  195  PHE195     -0.0000
    137  N          6.2860    5.3780   22.1400 N.3   197  CYS197     -0.1235
    138  CA         6.6090    4.0040   21.7920 C.3   197  CYS197      0.1677
    139  C          8.0200    3.6160   22.1970 C.2   197  CYS197      0.2270
    140  O          8.8460    4.4700   22.5030 O.2   197  CYS197     -0.2867
    141  CB         6.4770    3.7980   20.2880 C.3   197  CYS197      0.0956
    142  SG         4.8450    4.1560   19.5740 S.3   197  CYS197     -0.0801
    143  N          9.1440    1.9940   24.8980 N.3   199  GLN199     -0.1245
    144  CA         9.5590    2.0620   26.2940 C.3   199  GLN199      0.1566
    145  C          9.9730    0.6570   26.7060 C.2   199  GLN199      0.2260
    146  O          9.1840   -0.2830   26.6180 O.2   199  GLN199     -0.2867
    147  CB         8.4190    2.5490   27.1850 C.3   199  GLN199      0.0367
    148  CG         7.8050    3.8600   26.7240 C.3   199  GLN199      0.0905
    149  CD         6.8100    4.4120   27.7220 C.2   199  GLN199      0.2608
    150  OE1        5.8770    5.1210   27.3530 O.2   199  GLN199     -0.2717
    151  NE2        7.0110    4.0940   28.9990 N.am  199  GLN199     -0.0878
    152  N          7.7950   -2.5340   28.2010 N.3   202  ASP202     -0.1239
    153  CA         6.3730   -2.2820   27.9620 C.3   202  ASP202      0.1674
    154  C          6.1100   -3.0820   26.6820 C.2   202  ASP202      0.2266
    155  O          6.4070   -2.6100   25.5800 O.2   202  ASP202     -0.2867
    156  CB         6.0890   -0.7970   27.6960 C.3   202  ASP202      0.1410
    157  CG         5.7970   -0.0120   28.9630 C.2   202  ASP202      0.3668
    158  OD1        5.4990    1.1960   28.8530 O.co2 202  ASP202     -0.2456
    159  OD2        5.8600   -0.5940   30.0640 O.co2 202  ASP202     -0.2456
@<TRIPOS>BOND
     1     1     2    1
     2    14    13    2
     3     5     2    1
     4     5     6    1
     5     2     3    1
     6    13    12    1
     7    11     3   am
     8    11    12    1
     9     6     8   ar
    10     6     7   ar
    11     3     4    2
    12     8    10   ar
    13    12    15    1
    14     7     9   ar
    15    15    16    1
    16    30    29    2
    17    10     9   ar
    18    81    80    2
    19    29    28    1
    20    31    28    1
    21    31    32    1
    22    16    32    1
    23    85    84    2
    24    80    79    1
    25    79    78    1
    26    28    27    1
    27    84    83    1
    28    27    19   am
    29    78    72   am
    30    82    83    1
    31    73    72    2
    32    83    86    1
    33    72    71    1
    34    86    87    1
    35    19    20    2
    36    19    18    1
    37    94    92    1
    38    88    89    1
    39    17    18    1
    40    92    89    1
    41    92    93    1
    42    67    66    2
    43    71    74    1
    44    71    70    1
    45    18    21    1
    46    91    90    2
    47    74    75    1
    48    24    26   ar
    49    24    22   ar
    50    89    90    1
    51    26    25   ar
    52    66    70   am
    53    66    65    1
    54    90    95   am
    55    22    21    1
    56    22    23   ar
    57    25    23   ar
    58    64    65    1
    59    64    61   am
    60    68    65    1
    61    68    69    1
    62    63    60    1
    63    75    76    2
    64    75    77   am
    65    60    61    1
    66    60    59    1
    67    54    53    2
    68    61    62    2
    69    95    96    1
    70    69   142    1
    71    53    59   am
    72    53    52    1
    73    96    97    1
    74    96    99    1
    75    98    97    2
    76    97   101   am
    77    99   100    1
    78    51    52    1
    79    52    55    1
    80   142   141    1
    81   101   102    1
    82   141   138    1
    83    55    56    1
    84    58    56   am
    85    39    41   ar
    86    39    38   ar
    87    41    42   ar
    88   102   103    1
    89   102   105    1
    90   134   136   ar
    91   134   132   ar
    92    56    57    2
    93    36    35    2
    94   136   135   ar
    95   104   103    2
    96   103   115   am
    97   132   131   ar
    98    38    37    1
    99    38    40   ar
   100   138   137    1
   101   138   139    1
   102   105   106    1
   103    42    40   ar
   104    37    34    1
   105    34    35    1
   106    34    33    1
   107   139   140    2
   108   115   116    1
   109   107   106   ar
   110   107   109   ar
   111   106   108   ar
   112   135   133   ar
   113   131   133   ar
   114   131   130    1
   115   116   117    1
   116   122   121    2
   117   109   110   ar
   118   130   127    1
   119   117   118    2
   120   117   119   am
   121   108   110   ar
   122   108   111   ar
   123   127   126    1
   124   127   128    1
   125   121   126   am
   126   121   120    1
   127   119   120    1
   128   110   112   ar
   129   143   144    1
   130   111   113   ar
   131   128   129    2
   132   120   123    1
   133   155   154    2
   134   112   114   ar
   135   144   145    1
   136   144   147    1
   137   113   114   ar
   138   124   123    1
   139   146   145    2
   140   154   153    1
   141   148   147    1
   142   148   149    1
   143   123   125    1
   144   150   149    2
   145   156   153    1
   146   156   157    1
   147   149   151   am
   148   153   152    1
   149    46    45    2
   150   158   157   ar
   151   157   159   ar
   152    45    44    1
   153    47    44    1
   154    47    48    1
   155    49    48    1
   156    44    43    1
   157    48    50    1
