@<TRIPOS>MOLECULE
tmp/2qxiA00.pdb
 132 131 0 0 0
SMALL
GASTEIGER

@<TRIPOS>ATOM
      1  N         -2.4130    4.7630    6.7610 N.3    25  HIS25      -0.1226
      2  CA        -3.3020    4.6980    7.9110 C.3    25  HIS25       0.1752
      3  C         -2.9130    3.5480    8.8170 C.2    25  HIS25       0.2596
      4  O         -2.7090    3.7260   10.0290 O.2    25  HIS25      -0.2718
      5  CB        -4.7450    4.6500    7.4520 C.3    25  HIS25       0.0759
      6  CG        -5.7570    4.7590    8.5320 C.ar   25  HIS25       0.0818
      7  ND1       -5.8490    5.9220    9.2390 N.ar   25  HIS25      -0.2268
      8  CD2       -6.7180    3.9310    9.0320 C.ar   25  HIS25       0.1154
      9  CE1       -6.8180    5.8100   10.1450 C.ar   25  HIS25       0.1986
     10  NE2       -7.3690    4.6110   10.0520 N.ar   25  HIS25      -0.2212
     11  N         -2.8100    2.3300    8.2840 N.am   26  CYS26      -0.1970
     12  CA        -2.5290    1.1420    9.0700 C.3    26  CYS26       0.1712
     13  C         -1.8640    0.0880    8.1520 C.2    26  CYS26       0.2296
     14  O         -1.8960    0.2350    6.9230 O.2    26  CYS26      -0.2864
     15  CB        -3.7890    0.5290    9.6970 C.3    26  CYS26       0.0983
     16  SG        -4.4440    1.4320   11.1120 S.3    26  CYS26      -0.0798
     17  N         -9.4850   -0.8780   15.1190 N.3    41  HIS41      -0.1241
     18  CA        -9.3110    0.5430   15.4270 C.3    41  HIS41       0.1621
     19  C         -8.9140    1.3420   14.1670 C.2    41  HIS41       0.2264
     20  O         -8.8720    2.5760   14.2310 O.2    41  HIS41      -0.2867
     21  CB        -8.3820    0.7680   16.6000 C.3    41  HIS41       0.0745
     22  CG        -6.9180    0.7040   16.3340 C.ar   41  HIS41       0.0817
     23  ND1       -6.1110   -0.3530   16.7140 N.ar   41  HIS41      -0.2268
     24  CD2       -6.0730    1.5990   15.7810 C.ar   41  HIS41       0.1154
     25  CE1       -4.8520   -0.0780   16.4010 C.ar   41  HIS41       0.1986
     26  NE2       -4.8280    1.1270   15.8260 N.ar   41  HIS41      -0.2212
     27  N        -10.3090   -1.6980   23.2630 N.3    80  HIS80      -0.1241
     28  CA        -9.6920   -2.3460   22.1160 C.3    80  HIS80       0.1621
     29  C         -9.6460   -3.8430   22.2480 C.2    80  HIS80       0.2264
     30  O         -8.9050   -4.4830   21.5050 O.2    80  HIS80      -0.2867
     31  CB        -8.3060   -1.7540   21.7290 C.3    80  HIS80       0.0745
     32  CG        -8.4240   -0.2730   21.5610 C.ar   80  HIS80       0.0817
     33  ND1       -9.0840    0.3430   20.5210 N.ar   80  HIS80      -0.2268
     34  CD2       -7.9650    0.7170   22.3380 C.ar   80  HIS80       0.1154
     35  CE1       -9.0070    1.6520   20.6800 C.ar   80  HIS80       0.1986
     36  NE2       -8.3490    1.9010   21.7760 N.ar   80  HIS80      -0.2212
     37  N          9.8320   -2.6160   19.0090 N.3   170  ASN170     -0.1225
     38  CA         8.3780   -2.6490   19.2010 C.3   170  ASN170      0.1785
     39  C          7.6620   -2.0660   18.0130 C.2   170  ASN170      0.2597
     40  O          8.2680   -1.5320   17.0810 O.2   170  ASN170     -0.2718
     41  CB         7.9990   -1.8760   20.4600 C.3   170  ASN170      0.1169
     42  CG         7.0310   -2.6040   21.3350 C.2   170  ASN170      0.2627
     43  OD1        7.1050   -2.6050   22.5740 O.2   170  ASN170     -0.2716
     44  ND2        6.0820   -3.2550   20.8180 N.am  170  ASN170     -0.0877
     45  N          6.3400   -2.1130   17.9490 N.am  171  ALA171     -0.1966
     46  CA         5.4540   -1.5260   17.0780 C.3   171  ALA171      0.1728
     47  C          5.1430   -0.1120   17.5330 C.2   171  ALA171      0.2616
     48  O          5.3710    0.2540   18.7100 O.2   171  ALA171     -0.2715
     49  CB         4.1450   -2.3180   16.9320 C.3   171  ALA171      0.0334
     50  N          4.6300    0.6830   16.6110 N.am  172  CYS172     -0.1954
     51  CA         4.2410    2.0450   16.9070 C.3   172  CYS172      0.1843
     52  C          3.1660    2.4850   15.9690 C.2   172  CYS172      0.2625
     53  O          2.6130    1.7330   15.1480 O.2   172  CYS172     -0.2714
     54  CB         5.4970    2.9530   16.8600 C.3   172  CYS172      0.0997
     55  SG         5.3560    4.5700   17.6680 S.3   172  CYS172     -0.0797
     56  N          2.7940    3.7580   16.0370 N.am  173  ASN173     -0.1958
     57  CA         1.7270    4.3210   15.2390 C.3   173  ASN173      0.1819
     58  C          1.9350    4.0410   13.7470 C.2   173  ASN173      0.2621
     59  O          3.0260    4.2700   13.2450 O.2   173  ASN173     -0.2715
     60  CB         1.5470    5.8210   15.5030 C.3   173  ASN173      0.1195
     61  CG         1.2390    6.0630   16.9770 C.2   173  ASN173      0.2630
     62  OD1        0.0570    6.1340   17.4400 O.2   173  ASN173     -0.2716
     63  ND2        2.2380    6.1400   17.7840 N.am  173  ASN173     -0.0877
     64  N          0.8810    3.6030   13.0780 N.am  174  GLY174     -0.1954
     65  CA         0.9130    3.2500   11.6830 C.3   174  GLY174      0.1869
     66  C          1.1640    1.7670   11.4230 C.2   174  GLY174      0.2309
     67  O          0.9640    1.2910   10.3210 O.2   174  GLY174     -0.2863
     68  N         -0.4340   -0.6920   13.1540 N.3   176  SER176     -0.1217
     69  CA        -1.5910   -1.5100   13.5370 C.3   176  SER176      0.1889
     70  C         -2.1350   -2.3160   12.3880 C.2   176  SER176      0.2288
     71  O         -2.1710   -1.8870   11.2290 O.2   176  SER176     -0.2866
     72  CB        -2.7150   -0.5990   14.0370 C.3   176  SER176      0.2089
     73  OG        -2.2720   -0.0810   15.3100 O.3   176  SER176     -0.2183
     74  N         -0.9070   -6.3110   14.9770 N.3   190  VAL190     -0.1231
     75  CA        -0.5310   -5.2200   15.8700 C.3   190  VAL190      0.1692
     76  C         -1.7790   -4.5150   16.3540 C.2   190  VAL190      0.2593
     77  O         -2.6170   -4.0920   15.5380 O.2   190  VAL190     -0.2718
     78  CB         0.4010   -4.2440   15.1320 C.3   190  VAL190      0.0266
     79  CG1        0.6560   -3.0040   16.0020 C.3   190  VAL190      0.0020
     80  CG2        1.7030   -4.8600   14.7370 C.3   190  VAL190      0.0020
     81  N         -1.8990   -4.3020   17.6660 N.am  191  SER191     -0.1938
     82  CA        -3.0640   -3.6000   18.2140 C.3   191  SER191      0.2055
     83  C         -2.6860   -2.3380   19.0080 C.2   191  SER191      0.2643
     84  O         -3.1430   -1.2610   18.6100 O.2   191  SER191     -0.2714
     85  CB        -3.9190   -4.5650   19.0500 C.3   191  SER191      0.2130
     86  OG        -5.0060   -3.8820   19.6420 O.3   191  SER191     -0.2179
     87  N         -1.8980   -2.4500   20.0610 N.am  192  TRP192     -0.1959
     88  CA        -1.6270   -1.2960   20.8960 C.3   192  TRP192      0.1771
     89  C         -0.3370   -1.4950   21.6970 C.2   192  TRP192      0.2620
     90  O          0.2450   -2.5700   21.7310 O.2   192  TRP192     -0.2715
     91  CB        -2.7860   -0.9800   21.8340 C.3   192  TRP192      0.0590
     92  CG        -3.2070   -1.9980   22.8450 C.ar  192  TRP192      0.0006
     93  CD1       -4.1230   -3.0040   22.6740 C.ar  192  TRP192      0.0946
     94  CD2       -2.7880   -2.0900   24.2140 C.ar  192  TRP192      0.0152
     95  NE1       -4.2790   -3.7170   23.8240 N.ar  192  TRP192     -0.2442
     96  CE2       -3.4750   -3.1670   24.8000 C.ar  192  TRP192      0.0810
     97  CE3       -1.8910   -1.3690   25.0350 C.ar  192  TRP192      0.0012
     98  CZ2       -3.2940   -3.5220   26.1300 C.ar  192  TRP192      0.0191
     99  CZ3       -1.7140   -1.7190   26.3430 C.ar  192  TRP192      0.0001
    100  CH2       -2.4140   -2.7960   26.8970 C.ar  192  TRP192      0.0015
    101  N          0.1010   -0.4210   22.3190 N.am  193  GLY193     -0.1940
    102  CA         1.2670   -0.4130   23.2190 C.3   193  GLY193      0.2014
    103  C          1.2320    0.8320   24.0460 C.2   193  GLY193      0.2640
    104  O          0.1670    1.4620   24.1560 O.2   193  GLY193     -0.2714
    105  N          2.3290    1.2150   24.6320 N.am  194  THR194     -0.1936
    106  CA         2.3720    2.4450   25.4100 C.3   194  THR194      0.2028
    107  C          2.9730    3.5480   24.5360 C.2   194  THR194      0.2642
    108  O          3.5930    3.3190   23.5090 O.2   194  THR194     -0.2714
    109  CB         3.0430    2.2950   26.7660 C.3   194  THR194      0.1808
    110  OG1        4.3460    1.7640   26.5700 O.3   194  THR194     -0.2208
    111  CG2        2.2700    1.3460   27.6440 C.3   194  THR194      0.0379
    112  N          2.7510    4.7550   25.0130 N.am  195  PHE195     -0.1973
    113  CA         3.0800    6.0060   24.3550 C.3   195  PHE195      0.1639
    114  C          3.9250    6.8720   25.2850 C.2   195  PHE195      0.2290
    115  O          3.5030    7.1020   26.4110 O.2   195  PHE195     -0.2864
    116  CB         1.8240    6.7690   23.8900 C.3   195  PHE195      0.0560
    117  CG         2.2000    8.0100   23.1230 C.ar  195  PHE195     -0.0200
    118  CD1        2.4620    7.8980   21.7800 C.ar  195  PHE195     -0.0042
    119  CD2        2.2950    9.2410   23.7170 C.ar  195  PHE195     -0.0042
    120  CE1        2.8040    9.0070   21.0310 C.ar  195  PHE195     -0.0003
    121  CE2        2.6310   10.3540   23.0130 C.ar  195  PHE195     -0.0003
    122  CZ         2.8910   10.2190   21.6700 C.ar  195  PHE195     -0.0000
    123  N          6.1440    5.2740   22.1200 N.3   197  CYS197     -0.1235
    124  CA         6.4750    3.9020   21.7910 C.3   197  CYS197      0.1677
    125  C          7.8890    3.5460   22.2150 C.2   197  CYS197      0.2270
    126  O          8.7600    4.3960   22.3970 O.2   197  CYS197     -0.2867
    127  CB         6.4120    3.7170   20.2880 C.3   197  CYS197      0.0956
    128  SG         4.8210    4.1650   19.5740 S.3   197  CYS197     -0.0801
    129  N          4.5900   -4.9060   23.3080 N.3   204  GLY204     -0.1225
    130  CA         3.5440   -4.6850   22.3240 C.3   204  GLY204      0.1811
    131  C          2.4130   -5.6210   22.5280 C.2   204  GLY204      0.2280
    132  O          2.6120   -6.7360   22.9760 O.2   204  GLY204     -0.2866
@<TRIPOS>BOND
     1     1     2    1
     2    14    13    2
     3     5     2    1
     4     5     6    1
     5     2     3    1
     6    13    12    1
     7    11     3   am
     8    11    12    1
     9     6     8   ar
    10     6     7   ar
    11     3     4    2
    12     8    10   ar
    13    12    15    1
    14     7     9   ar
    15    15    16    1
    16    10     9   ar
    17    67    66    2
    18    71    70    2
    19    66    65    1
    20    65    64    1
    21    70    69    1
    22    64    58   am
    23    68    69    1
    24    59    58    2
    25    69    72    1
    26    58    57    1
    27    72    73    1
    28    19    20    2
    29    19    18    1
    30    80    78    1
    31    74    75    1
    32    17    18    1
    33    78    75    1
    34    78    79    1
    35    53    52    2
    36    57    60    1
    37    57    56    1
    38    18    21    1
    39    60    61    1
    40    77    76    2
    41    24    26   ar
    42    24    22   ar
    43    26    25   ar
    44    75    76    1
    45    52    56   am
    46    52    51    1
    47    22    21    1
    48    22    23   ar
    49    76    81   am
    50    25    23   ar
    51    50    51    1
    52    50    47   am
    53    54    51    1
    54    54    55    1
    55    49    46    1
    56    61    62    2
    57    61    63   am
    58    46    47    1
    59    46    45    1
    60    40    39    2
    61    47    48    2
    62    81    82    1
    63    55   128    1
    64    45    39   am
    65    39    38    1
    66    82    83    1
    67    82    85    1
    68    84    83    2
    69    83    87   am
    70    37    38    1
    71    85    86    1
    72    38    41    1
    73   128   127    1
    74    87    88    1
    75   127   124    1
    76    41    42    1
    77    33    35   ar
    78    33    32   ar
    79    35    36   ar
    80    44    42   am
    81    88    89    1
    82    88    91    1
    83   120   122   ar
    84   120   118   ar
    85    42    43    2
    86    30    29    2
    87    32    31    1
    88    32    34   ar
    89   122   121   ar
    90    89    90    2
    91    89   101   am
    92    31    28    1
    93    36    34   ar
    94   118   117   ar
    95   124   123    1
    96   124   125    1
    97    91    92    1
    98    28    29    1
    99    28    27    1
   100   125   126    2
   101   101   102    1
   102   130   131    1
   103   130   129    1
   104   131   132    2
   105    93    92   ar
   106    93    95   ar
   107    92    94   ar
   108   121   119   ar
   109   117   119   ar
   110   117   116    1
   111   102   103    1
   112   108   107    2
   113    95    96   ar
   114   116   113    1
   115   103   104    2
   116   103   105   am
   117    94    96   ar
   118    94    97   ar
   119   113   112    1
   120   113   114    1
   121   107   112   am
   122   107   106    1
   123   105   106    1
   124    96    98   ar
   125    97    99   ar
   126   114   115    2
   127   106   109    1
   128    98   100   ar
   129    99   100   ar
   130   110   109    1
   131   109   111    1
