@<TRIPOS>MOLECULE
tmp/2qxmA01.pdb
 167 156 0 0 0
SMALL
GASTEIGER

@<TRIPOS>ATOM
      1  N         -2.1310    7.4510  -12.8300 N.3    36  MET36      -0.1245
      2  CA        -1.9210    6.1490  -12.1800 C.3    36  MET36       0.1570
      3  C         -1.4920    5.0840  -13.1770 C.2    36  MET36       0.2261
      4  O         -0.7750    4.1450  -12.8270 O.2    36  MET36      -0.2867
      5  CB        -3.1930    5.6820  -11.4590 C.3    36  MET36       0.0387
      6  CG        -3.2700    6.0660   -9.9840 C.3    36  MET36       0.0595
      7  SD        -2.4080    4.9290   -8.8340 S.3    36  MET36      -0.1393
      8  CE        -3.1870    3.3450   -9.2250 C.3    36  MET36       0.0692
      9  N          2.1820    5.2360  -13.4330 N.3    39  LEU39      -0.1231
     10  CA         2.8220    4.7640  -12.2060 C.3    39  LEU39       0.1693
     11  C          2.8340    3.2610  -12.1170 C.2    39  LEU39       0.2592
     12  O          3.8700    2.6680  -11.8410 O.2    39  LEU39      -0.2718
     13  CB         2.1480    5.3640  -10.9770 C.3    39  LEU39       0.0284
     14  CG         2.3340    6.8910  -11.0070 C.3    39  LEU39       0.0019
     15  CD1        1.9510    7.5960   -9.7200 C.3    39  LEU39       0.0001
     16  CD2        3.7810    7.2030  -11.3310 C.3    39  LEU39       0.0001
     17  N          1.6780    2.6560  -12.3670 N.am   40  THR40      -0.1953
     18  CA         1.5330    1.2000  -12.3470 C.3    40  THR40       0.1897
     19  C          2.1830    0.5280  -13.5630 C.2    40  THR40       0.2313
     20  O          2.7050   -0.5740  -13.4460 O.2    40  THR40      -0.2863
     21  CB         0.0520    0.7850  -12.2490 C.3    40  THR40       0.1794
     22  OG1       -0.7050    1.4560  -13.2600 O.3    40  THR40      -0.2208
     23  CG2       -0.5050    1.1180  -10.8730 C.3    40  THR40       0.0378
     24  N          4.8560    1.8700  -14.9340 N.3    42  LEU42      -0.1231
     25  CA         6.2390    1.9990  -14.4860 C.3    42  LEU42       0.1693
     26  C          6.5710    0.9130  -13.4750 C.2    42  LEU42       0.2591
     27  O          7.5360    0.1790  -13.6230 O.2    42  LEU42      -0.2718
     28  CB         6.4430    3.3800  -13.8600 C.3    42  LEU42       0.0284
     29  CG         7.8340    3.7090  -13.3450 C.3    42  LEU42       0.0019
     30  CD1        8.8180    3.7170  -14.5230 C.3    42  LEU42       0.0001
     31  CD2        7.8040    5.0530  -12.5940 C.3    42  LEU42       0.0001
     32  N          5.7540    0.8180  -12.4390 N.am   43  ALA43      -0.1980
     33  CA         5.9950   -0.1390  -11.3790 C.3    43  ALA43       0.1597
     34  C          6.1080   -1.5490  -11.9280 C.2    43  ALA43       0.2287
     35  O          7.0310   -2.3050  -11.6010 O.2    43  ALA43      -0.2864
     36  CB         4.8970   -0.0600  -10.3400 C.3    43  ALA43       0.0319
     37  N          9.3780   -2.0640  -13.4630 N.3    46  GLU46      -0.1245
     38  CA        10.3490   -2.0640  -12.3940 C.3    46  GLU46       0.1567
     39  C         10.3680   -3.3400  -11.5600 C.2    46  GLU46       0.2260
     40  O         11.3900   -3.6780  -10.9640 O.2    46  GLU46      -0.2867
     41  CB        10.1120   -0.8780  -11.4840 C.3    46  GLU46       0.0388
     42  CG        10.6870    0.4310  -11.9970 C.3    46  GLU46       0.1160
     43  CD        10.6040    1.5060  -10.9300 C.2    46  GLU46       0.3649
     44  OE1        9.4830    1.7590  -10.4710 O.co2  46  GLU46      -0.2457
     45  OE2       11.6460    2.0760  -10.5270 O.co2  46  GLU46      -0.2457
     46  N          8.1870   -5.8170   -1.8700 N.3    76  TRP76      -0.1227
     47  CA         8.2860   -5.2110   -3.1970 C.3    76  TRP76       0.1737
     48  C          7.9980   -3.7230   -3.1970 C.2    76  TRP76       0.2595
     49  O          8.7260   -2.9570   -3.8280 O.2    76  TRP76      -0.2718
     50  CB         7.4520   -5.9500   -4.2520 C.3    76  TRP76       0.0564
     51  CG         5.9580   -5.8070   -4.1510 C.ar   76  TRP76       0.0003
     52  CD1        5.1110   -6.5950   -3.4500 C.ar   76  TRP76       0.0946
     53  CD2        5.1400   -4.8520   -4.8420 C.ar   76  TRP76       0.0152
     54  NE1        3.8140   -6.1780   -3.6210 N.ar   76  TRP76      -0.2442
     55  CE2        3.8000   -5.1090   -4.4790 C.ar   76  TRP76       0.0810
     56  CE3        5.4110   -3.7910   -5.7040 C.ar   76  TRP76       0.0012
     57  CZ2        2.7370   -4.3290   -4.9460 C.ar   76  TRP76       0.0191
     58  CZ3        4.3490   -3.0240   -6.1770 C.ar   76  TRP76       0.0001
     59  CH2        3.0360   -3.3020   -5.8070 C.ar   76  TRP76       0.0015
     60  N          6.9560   -3.3090   -2.4870 N.am   77  LEU77      -0.1980
     61  CA         6.5310   -1.9120   -2.5900 C.3    77  LEU77       0.1596
     62  C          7.4230   -1.0030   -1.7560 C.2    77  LEU77       0.2287
     63  O          7.6320    0.1500   -2.1040 O.2    77  LEU77      -0.2864
     64  CB         5.0590   -1.7340   -2.2540 C.3    77  LEU77       0.0297
     65  CG         4.5690   -0.2770   -2.3170 C.3    77  LEU77       0.0022
     66  CD1        5.0330    0.4720   -3.5840 C.3    77  LEU77       0.0001
     67  CD2        3.0270   -0.2580   -2.1850 C.3    77  LEU77       0.0001
     68  N         10.4140   -0.3740   -4.1620 N.3    80  LEU80      -0.1231
     69  CA        10.0430    0.6950   -5.0800 C.3    80  LEU80       0.1693
     70  C         10.1350    2.0790   -4.4370 C.2    80  LEU80       0.2591
     71  O         10.7490    2.9760   -4.9850 O.2    80  LEU80      -0.2718
     72  CB         8.6470    0.4520   -5.6710 C.3    80  LEU80       0.0284
     73  CG         8.6860   -0.7460   -6.6380 C.3    80  LEU80       0.0019
     74  CD1        7.4270   -0.8260   -7.4500 C.3    80  LEU80       0.0001
     75  CD2        9.9490   -0.7520   -7.5830 C.3    80  LEU80       0.0001
     76  N          9.5650    2.2290   -3.2540 N.am   81  MET81      -0.1979
     77  CA         9.5020    3.5450   -2.6080 C.3    81  MET81       0.1605
     78  C         10.8500    4.1070   -2.2050 C.2    81  MET81       0.2287
     79  O         11.0880    5.2760   -2.4110 O.2    81  MET81      -0.2864
     80  CB         8.5440    3.5270   -1.4270 C.3    81  MET81       0.0413
     81  CG         7.1000    3.3090   -1.8300 C.3    81  MET81       0.0598
     82  SD         6.0160    3.2800   -0.3930 S.3    81  MET81      -0.1393
     83  CE         4.4420    3.6610   -1.1140 C.3    81  MET81       0.0692
     84  N         12.4160    5.5250   -5.3270 N.3    84  LEU84      -0.1245
     85  CA        11.8540    6.8360   -5.6580 C.3    84  LEU84       0.1561
     86  C         12.3840    7.9060   -4.7070 C.2    84  LEU84       0.2260
     87  O         12.8730    8.9330   -5.1240 O.2    84  LEU84      -0.2867
     88  CB        10.3310    6.7480   -5.6320 C.3    84  LEU84       0.0270
     89  CG         9.4930    8.0180   -5.8110 C.3    84  LEU84       0.0019
     90  CD1        9.6680    8.6020   -7.2100 C.3    84  LEU84       0.0001
     91  CD2        8.0120    7.7150   -5.5150 C.3    84  LEU84       0.0001
     92  N         16.0200    8.4740   -5.5440 N.3    87  ARG87      -0.1197
     93  CA        16.0990    9.2360   -6.8130 C.3    87  ARG87       0.1779
     94  C         15.5930   10.6650   -6.6940 C.2    87  ARG87       0.2305
     95  O         16.0020   11.5620   -7.4520 O.2    87  ARG87      -0.2863
     96  CB        15.2970    8.5990   -7.9420 C.2    87  ARG87      -0.0007
     97  CG        15.6160    7.2630   -8.3000 C.2    87  ARG87       0.0176
     98  CD        15.1580    6.8430   -9.6760 C.3    87  ARG87       0.2464
     99  NE        13.6970    6.8070   -9.8310 N.pl3  87  ARG87      -0.0815
    100  CZ        12.9250    5.8140   -9.4110 C.cat  87  ARG87       0.5349
    101  NH1       13.4590    4.7690   -8.7730 N.pl3  87  ARG87       0.1354
    102  NH2       11.6150    5.8520   -9.6150 N.pl3  87  ARG87       0.1354
    103  N          9.7620    9.9650  -10.3450 N.3    97  PHE97      -0.1241
    104  CA         9.2540    8.6140  -10.6330 C.3    97  PHE97       0.1605
    105  C         10.0430    8.0360  -11.7890 C.2    97  PHE97       0.2264
    106  O         10.4450    6.8820  -11.7770 O.2    97  PHE97      -0.2867
    107  CB         7.7550    8.6370  -10.9780 C.3    97  PHE97       0.0534
    108  CG         6.8530    8.8960   -9.7940 C.ar   97  PHE97      -0.0203
    109  CD1        6.3520    7.8390   -9.0190 C.ar   97  PHE97      -0.0042
    110  CD2        6.4930   10.1860   -9.4620 C.ar   97  PHE97      -0.0042
    111  CE1        5.5170    8.0890   -7.9200 C.ar   97  PHE97      -0.0003
    112  CE2        5.6620   10.4410   -8.3670 C.ar   97  PHE97      -0.0003
    113  CZ         5.1750    9.4000   -7.5950 C.ar   97  PHE97      -0.0000
    114  N         -3.6620    9.9840   -2.6160 N.3   109  MET109     -0.1245
    115  CA        -2.2530    9.6760   -2.7280 C.3   109  MET109      0.1570
    116  C         -1.3740   10.8220   -2.2570 C.2   109  MET109      0.2261
    117  O         -0.1590   10.6670   -2.1440 O.2   109  MET109     -0.2867
    118  CB        -1.8910    9.2900   -4.1690 C.3   109  MET109      0.0387
    119  CG        -0.6810    8.4020   -4.1570 C.3   109  MET109      0.0595
    120  SD        -0.2600    7.5100   -5.5970 S.3   109  MET109     -0.1393
    121  CE         0.7920    8.9020   -6.1210 C.3   109  MET109      0.0692
    122  N          0.3970   10.1330    1.0310 N.3   112  ILE112     -0.1245
    123  CA         1.4910    9.2350    0.6940 C.3   112  ILE112      0.1561
    124  C          2.6560   10.0030    0.0670 C.2   112  ILE112      0.2260
    125  O          3.8150    9.8400    0.4510 O.2   112  ILE112     -0.2867
    126  CB         0.9780    8.0920   -0.2070 C.3   112  ILE112      0.0252
    127  CG1        0.1440    7.1220    0.6480 C.3   112  ILE112      0.0019
    128  CG2        2.1080    7.3850   -0.8740 C.3   112  ILE112      0.0019
    129  CD1       -0.8090    6.2770   -0.1400 C.3   112  ILE112      0.0001
    130  N          6.6760   10.4190    1.2680 N.3   116  LEU116     -0.1245
    131  CA         7.8220   10.0760    0.4280 C.3   116  LEU116      0.1561
    132  C          8.7420   11.2730    0.2960 C.2   116  LEU116      0.2260
    133  O          9.9700   11.1280    0.3370 O.2   116  LEU116     -0.2867
    134  CB         7.3810    9.6220   -0.9630 C.3   116  LEU116      0.0270
    135  CG         6.6440    8.2980   -1.0710 C.3   116  LEU116      0.0019
    136  CD1        5.6490    8.4150   -2.1440 C.3   116  LEU116      0.0001
    137  CD2        7.5770    7.1070   -1.3270 C.3   116  LEU116      0.0001
    138  N          0.2160    2.5120    0.9950 N.3   205  GLY205     -0.1225
    139  CA         0.0920    2.4970   -0.4500 C.3   205  GLY205      0.1811
    140  C         -0.5820    1.2100   -0.8700 C.2   205  GLY205      0.2280
    141  O         -1.2930    1.1610   -1.8630 O.2   205  GLY205     -0.2866
    142  N         -4.1310    1.8830   -0.6650 N.3   208  HIS208     -0.1226
    143  CA        -4.5240    2.8090   -1.7120 C.3   208  HIS208      0.1752
    144  C         -4.5170    2.0880   -3.0510 C.2   208  HIS208      0.2595
    145  O         -5.3500    2.3500   -3.8990 O.2   208  HIS208     -0.2718
    146  CB        -3.5940    4.0260   -1.7610 C.3   208  HIS208      0.0759
    147  CG        -3.9740    5.0250   -2.8040 C.ar  208  HIS208      0.0818
    148  ND1       -3.4070    5.0310   -4.0620 N.ar  208  HIS208     -0.2268
    149  CD2       -4.8620    6.0470   -2.7880 C.ar  208  HIS208      0.1154
    150  CE1       -3.9290    6.0110   -4.7770 C.ar  208  HIS208      0.1986
    151  NE2       -4.8160    6.6430   -4.0270 N.ar  208  HIS208     -0.2212
    152  N         -3.5670    1.1840   -3.2390 N.am  209  LEU209     -0.1980
    153  CA        -3.4670    0.4230   -4.4820 C.3   209  LEU209      0.1596
    154  C         -4.6020   -0.5860   -4.5500 C.2   209  LEU209      0.2287
    155  O         -5.0190   -1.0010   -5.6290 O.2   209  LEU209     -0.2864
    156  CB        -2.0930   -0.2690   -4.6030 C.3   209  LEU209      0.0297
    157  CG        -1.7290   -0.9660   -5.9250 C.3   209  LEU209      0.0022
    158  CD1       -1.6040    0.0340   -7.0550 C.3   209  LEU209      0.0001
    159  CD2       -0.4330   -1.7710   -5.8120 C.3   209  LEU209      0.0001
    160  N          1.5780   -7.2880  -11.0110 N.3   224  LEU224     -0.1245
    161  CA         1.2030   -6.2490  -10.0610 C.3   224  LEU224      0.1561
    162  C         -0.0090   -6.7220   -9.2610 C.2   224  LEU224      0.2260
    163  O         -0.0870   -6.5230   -8.0660 O.2   224  LEU224     -0.2867
    164  CB         0.8830   -4.9530  -10.8180 C.3   224  LEU224      0.0270
    165  CG         0.8200   -3.6320  -10.0570 C.3   224  LEU224      0.0019
    166  CD1        2.1870   -3.2960   -9.5060 C.3   224  LEU224      0.0001
    167  CD2        0.3380   -2.5020  -10.9570 C.3   224  LEU224      0.0001
@<TRIPOS>BOND
     1    24    25    1
     2    30    29    1
     3    25    28    1
     4    25    26    1
     5    28    29    1
     6    27    26    2
     7    19    20    2
     8    19    18    1
     9    26    32   am
    10    37    38    1
    11     9    10    1
    12    29    31    1
    13    22    21    1
    14     3     4    2
    15     3     2    1
    16     1     2    1
    17    32    33    1
    18    38    39    1
    19    38    41    1
    20    17    18    1
    21    17    11   am
    22    18    21    1
    23    21    23    1
    24    10    11    1
    25    10    13    1
    26     2     5    1
    27    11    12    2
    28    42    41    1
    29    42    43    1
    30    34    35    2
    31    34    33    1
    32   105   106    2
    33   105   104    1
    34    39    40    2
    35     5     6    1
    36    33    36    1
    37    16    14    1
    38   160   161    1
    39    14    13    1
    40    14    15    1
    41   107   104    1
    42   107   108    1
    43   167   165    1
    44    43    45   ar
    45    43    44   ar
    46   164   161    1
    47   164   165    1
    48   104   103    1
    49   161   162    1
    50   165   166    1
    51     6     7    1
    52    99    98    1
    53    99   100    2
    54   108   110   ar
    55   108   109   ar
    56    98    97    1
    57   102   100    1
    58   110   112   ar
    59   100   101    1
    60   162   163    2
    61     8     7    1
    62   109   111   ar
    63   112   113   ar
    64    97    96    2
    65    96    93    1
    66   111   113   ar
    67    75    73    1
    68    95    94    2
    69    74    73    1
    70    90    89    1
    71   158   157    1
    72    93    94    1
    73    93    92    1
    74    73    72    1
    75    58    59   ar
    76    58    56   ar
    77   121   120    1
    78   157   159    1
    79   157   156    1
    80    89    88    1
    81    89    91    1
    82    59    57   ar
    83    56    53   ar
    84    72    69    1
    85    85    88    1
    86    85    84    1
    87    85    86    1
    88   155   154    2
    89   120   119    1
    90    87    86    2
    91    69    70    1
    92    69    68    1
    93    71    70    2
    94    57    55   ar
    95    53    55   ar
    96    53    51   ar
    97   150   148   ar
    98   150   151   ar
    99   156   153    1
   100   154   153    1
   101   153   152    1
   102    55    54   ar
   103    70    76   am
   104    50    51    1
   105    50    47    1
   106   118   119    1
   107   118   115    1
   108    51    52   ar
   109   148   147   ar
   110   151   149   ar
   111   145   144    2
   112    49    48    2
   113    54    52   ar
   114    66    65    1
   115    76    77    1
   116   152   144   am
   117    48    47    1
   118    48    60   am
   119    47    46    1
   120   144   143    1
   121   147   149   ar
   122   147   146    1
   123   115   114    1
   124   115   116    1
   125    77    78    1
   126    77    80    1
   127    61    60    1
   128    61    64    1
   129    61    62    1
   130    79    78    2
   131    65    64    1
   132    65    67    1
   133   116   117    2
   134   136   135    1
   135    63    62    2
   136   141   140    2
   137    81    80    1
   138    81    82    1
   139   146   143    1
   140   143   142    1
   141   137   135    1
   142    83    82    1
   143   135   134    1
   144   134   131    1
   145   128   126    1
   146   140   139    1
   147   139   138    1
   148   126   127    1
   149   126   123    1
   150   129   127    1
   151   124   125    2
   152   124   123    1
   153   132   133    2
   154   132   131    1
   155   131   130    1
   156   123   122    1
