@<TRIPOS>MOLECULE
tmp/2qxsB00.pdb
 223 213 0 0 0
SMALL
GASTEIGER

@<TRIPOS>ATOM
      1  N         17.2980  -24.5030   29.2300 N.3    30  MET30      -0.1245
      2  CA        17.6900  -24.1080   27.8670 C.3    30  MET30       0.1570
      3  C         16.8130  -24.7440   26.7910 C.2    30  MET30       0.2261
      4  O         16.4850  -24.1010   25.7850 O.2    30  MET30      -0.2867
      5  CB        19.1700  -24.3580   27.5780 C.3    30  MET30       0.0387
      6  CG        20.1070  -23.3360   28.2180 C.3    30  MET30       0.0595
      7  SD        19.6650  -21.5980   27.9100 S.3    30  MET30      -0.1393
      8  CE        19.4460  -21.5570   26.1260 C.3    30  MET30       0.0692
      9  N         13.6920  -22.5800   26.6810 N.3    33  LEU33      -0.1231
     10  CA        13.9470  -21.2590   26.0840 C.3    33  LEU33       0.1693
     11  C         14.1860  -21.3820   24.5700 C.2    33  LEU33       0.2592
     12  O         13.7780  -20.5070   23.7880 O.2    33  LEU33      -0.2718
     13  CB        15.1360  -20.5750   26.7910 C.3    33  LEU33       0.0284
     14  CG        14.8850  -20.1940   28.2620 C.3    33  LEU33       0.0019
     15  CD1       16.1670  -19.7470   28.9330 C.3    33  LEU33       0.0001
     16  CD2       13.7940  -19.1250   28.4020 C.3    33  LEU33       0.0001
     17  N         14.8520  -22.4650   24.1630 N.am   34  THR34      -0.1953
     18  CA        15.1440  -22.7120   22.7420 C.3    34  THR34       0.1897
     19  C         13.8360  -22.9490   21.9840 C.2    34  THR34       0.2313
     20  O         13.6220  -22.3730   20.9220 O.2    34  THR34      -0.2863
     21  CB        16.0830  -23.9260   22.5610 C.3    34  THR34       0.1794
     22  OG1       17.3570  -23.6130   23.1420 O.3    34  THR34      -0.2208
     23  CG2       16.2870  -24.2480   21.0750 C.3    34  THR34       0.0378
     24  N         10.8530  -21.9620   22.8540 N.3    36  LEU36      -0.1231
     25  CA        10.0890  -20.7060   22.8520 C.3    36  LEU36       0.1693
     26  C         10.6110  -19.7840   21.7640 C.2    36  LEU36       0.2592
     27  O          9.8320  -19.2880   20.9450 O.2    36  LEU36      -0.2718
     28  CB        10.1550  -20.0490   24.2290 C.3    36  LEU36       0.0284
     29  CG         9.4910  -18.6930   24.4220 C.3    36  LEU36       0.0019
     30  CD1        7.9720  -18.7970   24.2460 C.3    36  LEU36       0.0001
     31  CD2        9.8730  -18.1080   25.7890 C.3    36  LEU36       0.0001
     32  N         11.9350  -19.5810   21.7350 N.am   37  ALA37      -0.1966
     33  CA        12.5610  -18.7200   20.7050 C.3    37  ALA37       0.1728
     34  C         12.1940  -19.2150   19.3040 C.2    37  ALA37       0.2616
     35  O         11.8430  -18.4210   18.4350 O.2    37  ALA37      -0.2715
     36  CB        14.0540  -18.6960   20.8640 C.3    37  ALA37       0.0334
     37  N         12.2540  -20.5300   19.0990 N.am   38  ASP38      -0.1971
     38  CA        11.9590  -21.1070   17.7720 C.3    38  ASP38       0.1709
     39  C         10.5200  -20.8000   17.3360 C.2    38  ASP38       0.2293
     40  O         10.2840  -20.4380   16.1850 O.2    38  ASP38      -0.2864
     41  CB        12.2430  -22.6040   17.7820 C.3    38  ASP38       0.1436
     42  CG        13.7390  -22.9080   17.8520 C.2    38  ASP38       0.3671
     43  OD1       14.5610  -21.9650   17.7790 O.co2  38  ASP38      -0.2456
     44  OD2       14.0970  -24.0940   17.9800 O.co2  38  ASP38      -0.2456
     45  N          8.6710  -18.2340   18.5350 N.3    40  GLU40      -0.1231
     46  CA         8.4720  -16.7830   18.4110 C.3    40  GLU40       0.1699
     47  C          8.9380  -16.2850   17.0560 C.2    40  GLU40       0.2592
     48  O          8.4610  -15.2540   16.5640 O.2    40  GLU40      -0.2718
     49  CB         9.2260  -16.0230   19.4830 C.3    40  GLU40       0.0402
     50  CG         8.6260  -16.1520   20.8740 C.3    40  GLU40       0.1161
     51  CD         9.3880  -15.2900   21.8390 C.2    40  GLU40       0.3649
     52  OE1       10.4260  -15.7510   22.3490 O.co2  40  GLU40      -0.2457
     53  OE2        8.9660  -14.1390   22.0570 O.co2  40  GLU40      -0.2457
     54  N          9.8610  -17.0190   16.4450 N.am   41  LEU41      -0.1980
     55  CA        10.4430  -16.5640   15.1710 C.3    41  LEU41       0.1596
     56  C          9.4060  -16.3300   14.0750 C.2    41  LEU41       0.2287
     57  O          9.4520  -15.2810   13.4300 O.2    41  LEU41      -0.2864
     58  CB        11.5890  -17.4770   14.7080 C.3    41  LEU41       0.0297
     59  CG        12.4500  -16.9460   13.5510 C.3    41  LEU41       0.0022
     60  CD1       13.1860  -15.6140   13.8900 C.3    41  LEU41       0.0001
     61  CD2       13.4480  -17.9990   13.1570 C.3    41  LEU41       0.0001
     62  N         17.3640  -10.6260   14.6130 N.3    70  TRP70      -0.1227
     63  CA        16.3840  -11.5070   15.2920 C.3    70  TRP70       0.1737
     64  C         16.5810  -11.5930   16.8200 C.2    70  TRP70       0.2595
     65  O         15.6060  -11.5160   17.5760 O.2    70  TRP70      -0.2718
     66  CB        16.3710  -12.8960   14.6420 C.3    70  TRP70       0.0564
     67  CG        17.5710  -13.7080   14.8980 C.ar   70  TRP70       0.0003
     68  CD1       18.7470  -13.6670   14.2140 C.ar   70  TRP70       0.0946
     69  CD2       17.7300  -14.7040   15.9160 C.ar   70  TRP70       0.0152
     70  NE1       19.6400  -14.5590   14.7500 N.ar   70  TRP70      -0.2442
     71  CE2       19.0500  -15.2040   15.8040 C.ar   70  TRP70       0.0810
     72  CE3       16.9100  -15.1840   16.9430 C.ar   70  TRP70       0.0012
     73  CZ2       19.5540  -16.1960   16.6490 C.ar   70  TRP70       0.0191
     74  CZ3       17.4060  -16.2040   17.7720 C.ar   70  TRP70       0.0001
     75  CH2       18.7220  -16.6720   17.6330 C.ar   70  TRP70       0.0015
     76  N         17.8150  -11.7190   17.2790 N.am   71  LEU71      -0.1980
     77  CA        18.0270  -11.9010   18.7240 C.3    71  LEU71       0.1596
     78  C         17.8180  -10.5820   19.4730 C.2    71  LEU71       0.2287
     79  O         17.2360  -10.5670   20.5620 O.2    71  LEU71      -0.2864
     80  CB        19.3900  -12.5240   19.0200 C.3    71  LEU71       0.0297
     81  CG        19.6480  -12.8330   20.5030 C.3    71  LEU71       0.0022
     82  CD1       18.5670  -13.7670   21.0870 C.3    71  LEU71       0.0001
     83  CD2       21.0100  -13.4590   20.6650 C.3    71  LEU71       0.0001
     84  N         14.1140  -10.3800   19.8600 N.3    74  LEU74      -0.1231
     85  CA        13.6360  -11.2370   20.9650 C.3    74  LEU74       0.1693
     86  C         13.9530  -10.5760   22.3100 C.2    74  LEU74       0.2591
     87  O         13.1310  -10.6090   23.2490 O.2    74  LEU74      -0.2718
     88  CB        14.3140  -12.5910   20.9390 C.3    74  LEU74       0.0284
     89  CG        13.8510  -13.5640   19.8400 C.3    74  LEU74       0.0019
     90  CD1       14.5590  -14.8920   20.0640 C.3    74  LEU74       0.0001
     91  CD2       12.3130  -13.7500   19.8320 C.3    74  LEU74       0.0001
     92  N         15.1540  -10.0300   22.4050 N.am   75  MET75      -0.1979
     93  CA        15.5810   -9.4100   23.6630 C.3    75  MET75       0.1605
     94  C         14.7960   -8.1700   24.0190 C.2    75  MET75       0.2287
     95  O         14.3720   -8.0340   25.1650 O.2    75  MET75      -0.2864
     96  CB        17.0740   -9.1360   23.6690 C.3    75  MET75       0.0413
     97  CG        17.8850  -10.4040   23.8390 C.3    75  MET75       0.0598
     98  SD        19.6450  -10.0720   23.8110 S.3    75  MET75      -0.1393
     99  CE        20.2840  -11.6590   24.3770 C.3    75  MET75       0.0692
    100  N         11.5150   -9.2180   25.3260 N.3    78  LEU78      -0.1245
    101  CA        11.6480   -9.7620   26.6870 C.3    78  LEU78       0.1561
    102  C         11.7290   -8.6270   27.6960 C.2    78  LEU78       0.2260
    103  O         11.0540   -8.6540   28.7330 O.2    78  LEU78      -0.2867
    104  CB        12.8970  -10.6270   26.7940 C.3    78  LEU78       0.0270
    105  CG        13.2570  -11.1220   28.2070 C.3    78  LEU78       0.0019
    106  CD1       12.1320  -12.0350   28.7930 C.3    78  LEU78       0.0001
    107  CD2       14.5830  -11.8510   28.1500 C.3    78  LEU78       0.0001
    108  N          8.2540   -6.9410   28.1700 N.3    81  ARG81      -0.1245
    109  CA         7.2430   -7.6370   28.9940 C.3    81  ARG81       0.1563
    110  C          7.6890   -7.8450   30.4490 C.2    81  ARG81       0.2260
    111  O          6.8730   -8.1610   31.3160 O.2    81  ARG81      -0.2867
    112  CB         6.7170   -8.9110   28.3590 C.3    81  ARG81       0.0307
    113  CG         7.7100   -9.7830   27.7710 C.3    81  ARG81       0.0489
    114  CD         7.0320  -10.9170   26.9910 C.3    81  ARG81       0.2205
    115  NE         8.0430  -11.9360   26.8300 N.pl3  81  ARG81      -0.0865
    116  CZ         8.7970  -12.0800   25.7480 C.cat  81  ARG81       0.5346
    117  NH1        8.6210  -11.2840   24.6980 N.pl3  81  ARG81       0.1354
    118  NH2        9.7210  -13.0320   25.7170 N.pl3  81  ARG81       0.1354
    119  N         10.0650  -14.4620   30.3900 N.3    91  PHE91      -0.1241
    120  CA        10.2470  -15.0980   29.0710 C.3    91  PHE91       0.1605
    121  C          8.8850  -15.4820   28.4860 C.2    91  PHE91       0.2264
    122  O          8.6350  -15.3060   27.2920 O.2    91  PHE91      -0.2867
    123  CB        11.1640  -16.3140   29.1670 C.3    91  PHE91       0.0534
    124  CG        12.5890  -15.9640   29.4530 C.ar   91  PHE91      -0.0203
    125  CD1       13.0390  -15.8200   30.7700 C.ar   91  PHE91      -0.0042
    126  CD2       13.4930  -15.7660   28.4040 C.ar   91  PHE91      -0.0042
    127  CE1       14.3610  -15.4890   31.0360 C.ar   91  PHE91      -0.0003
    128  CE2       14.8120  -15.4380   28.6680 C.ar   91  PHE91      -0.0003
    129  CZ        15.2440  -15.2960   29.9830 C.ar   91  PHE91      -0.0000
    130  N         25.0370  -17.7370   31.7750 N.3   108  MET108     -0.1245
    131  CA        23.8560  -16.9110   31.5430 C.3   108  MET108      0.1570
    132  C         23.7000  -15.6880   32.4490 C.2   108  MET108      0.2261
    133  O         23.1570  -14.6790   32.0220 O.2   108  MET108     -0.2867
    134  CB        22.5820  -17.7450   31.6250 C.3   108  MET108      0.0387
    135  CG        21.3610  -16.9270   31.2770 C.3   108  MET108      0.0595
    136  SD        19.9650  -17.9780   31.0240 S.3   108  MET108     -0.1393
    137  CE        20.3320  -18.5580   29.3720 C.3   108  MET108      0.0692
    138  N         24.4730  -11.9750   31.3110 N.3   111  ILE111     -0.1231
    139  CA        23.5250  -11.4260   30.3360 C.3   111  ILE111      0.1692
    140  C         22.1420  -11.2190   30.9570 C.2   111  ILE111      0.2592
    141  O         21.4710  -10.2210   30.6820 O.2   111  ILE111     -0.2718
    142  CB        23.4670  -12.2920   29.0590 C.3   111  ILE111      0.0266
    143  CG1       24.8840  -12.3970   28.4610 C.3   111  ILE111      0.0019
    144  CG2       22.4900  -11.6780   28.0600 C.3   111  ILE111      0.0020
    145  CD1       25.1850  -13.6820   27.7440 C.3   111  ILE111      0.0001
    146  N         21.7270  -12.1630   31.7990 N.am  112  PHE112     -0.1976
    147  CA        20.5130  -12.0150   32.6000 C.3   112  PHE112      0.1639
    148  C         20.5000  -10.6590   33.3320 C.2   112  PHE112      0.2290
    149  O         19.5090   -9.9220   33.2750 O.2   112  PHE112     -0.2864
    150  CB        20.4470  -13.1660   33.6080 C.3   112  PHE112      0.0560
    151  CG        19.0640  -13.5290   34.0460 C.ar  112  PHE112     -0.0200
    152  CD1       18.3580  -12.7260   34.9330 C.ar  112  PHE112     -0.0042
    153  CD2       18.4770  -14.7040   33.5980 C.ar  112  PHE112     -0.0042
    154  CE1       17.0640  -13.0860   35.3560 C.ar  112  PHE112     -0.0003
    155  CE2       17.1930  -15.0780   34.0140 C.ar  112  PHE112     -0.0003
    156  CZ        16.4840  -14.2590   34.8910 C.ar  112  PHE112     -0.0000
    157  N         19.9510   -7.7610   30.9800 N.3   115  LEU115     -0.1245
    158  CA        18.5560   -7.6940   30.5680 C.3   115  LEU115      0.1561
    159  C         17.7090   -7.0540   31.6670 C.2   115  LEU115      0.2260
    160  O         16.8940   -6.1730   31.4010 O.2   115  LEU115     -0.2867
    161  CB        18.0310   -9.0960   30.1840 C.3   115  LEU115      0.0270
    162  CG        18.5960   -9.6420   28.8650 C.3   115  LEU115      0.0019
    163  CD1       18.3790  -11.1500   28.7860 C.3   115  LEU115      0.0001
    164  CD2       17.9560   -8.9660   27.6540 C.3   115  LEU115      0.0001
    165  N         24.9330  -12.5500   23.9750 N.3   199  GLY199     -0.1225
    166  CA        23.9950  -13.6790   23.9790 C.3   199  GLY199      0.1811
    167  C         24.3400  -14.6620   22.8760 C.2   199  GLY199      0.2280
    168  O         24.3140  -15.8730   23.0820 O.2   199  GLY199     -0.2866
    169  N         27.3410  -16.6380   23.8300 N.3   202  HIS202     -0.1226
    170  CA        26.8790  -17.6050   24.8080 C.3   202  HIS202      0.1752
    171  C         26.1800  -18.8050   24.1570 C.2   202  HIS202      0.2595
    172  O         26.5230  -19.9550   24.4470 O.2   202  HIS202     -0.2718
    173  CB        25.9760  -16.9050   25.8170 C.3   202  HIS202      0.0759
    174  CG        25.5090  -17.7830   26.9270 C.ar  202  HIS202      0.0818
    175  ND1       24.2350  -17.7040   27.4470 N.ar  202  HIS202     -0.2268
    176  CD2       26.1400  -18.7670   27.6120 C.ar  202  HIS202      0.1154
    177  CE1       24.1050  -18.5950   28.4150 C.ar  202  HIS202      0.1986
    178  NE2       25.2480  -19.2480   28.5390 N.ar  202  HIS202     -0.2212
    179  N         25.2370  -18.5330   23.2610 N.am  203  LEU203     -0.1980
    180  CA        24.5190  -19.6110   22.5710 C.3   203  LEU203      0.1596
    181  C         25.5060  -20.4650   21.7570 C.2   203  LEU203      0.2287
    182  O         25.4440  -21.6910   21.7940 O.2   203  LEU203     -0.2864
    183  CB        23.4460  -18.9940   21.6900 C.3   203  LEU203      0.0297
    184  CG        21.9740  -18.9000   22.1100 C.3   203  LEU203      0.0022
    185  CD1       21.5660  -19.2680   23.5820 C.3   203  LEU203      0.0001
    186  CD2       21.2840  -17.6320   21.5920 C.3   203  LEU203      0.0001
    187  N         22.3080  -25.9900   16.5250 N.3   209  ASN209     -0.1225
    188  CA        21.9940  -24.8080   15.7160 C.3   209  ASN209      0.1785
    189  C         21.9710  -23.5610   16.6140 C.2   209  ASN209      0.2597
    190  O         21.7270  -23.6770   17.8230 O.2   209  ASN209     -0.2718
    191  CB        20.5980  -24.9960   15.0920 C.3   209  ASN209      0.1169
    192  CG        20.4950  -24.4610   13.6670 C.2   209  ASN209      0.2627
    193  OD1       20.7760  -23.2910   13.4000 O.2   209  ASN209     -0.2716
    194  ND2       20.0630  -25.3200   12.7490 N.am  209  ASN209     -0.0877
    195  N         22.2620  -22.3850   16.0490 N.am  210  VAL210     -0.1966
    196  CA        22.0780  -21.1110   16.7620 C.3   210  VAL210      0.1727
    197  C         21.2730  -20.1160   15.9240 C.2   210  VAL210      0.2616
    198  O         20.2400  -19.6220   16.3770 O.2   210  VAL210     -0.2715
    199  CB        23.4200  -20.4430   17.1900 C.3   210  VAL210      0.0290
    200  CG1       23.1530  -19.0810   17.8510 C.3   210  VAL210      0.0023
    201  CG2       24.1980  -21.3350   18.1340 C.3   210  VAL210      0.0023
    202  N         21.7440  -19.8050   14.7200 N.am  211  VAL211     -0.1964
    203  CA        21.1130  -18.7490   13.9140 C.3   211  VAL211      0.1712
    204  C         20.0990  -19.3510   12.9430 C.2   211  VAL211      0.2458
    205  O         20.2910  -20.4780   12.4810 O.2   211  VAL211     -0.2730
    206  CB        22.1380  -17.8940   13.1200 C.3   211  VAL211      0.0289
    207  CG1       23.1520  -17.2400   14.0530 C.3   211  VAL211      0.0023
    208  CG2       22.8440  -18.7330   12.0670 C.3   211  VAL211      0.0023
    209  N         19.0170  -18.6040   12.6320 N.am  212  PRO212     -0.2727
    210  CA        18.0990  -19.1320   11.6310 C.3   212  PRO212      0.1402
    211  C         18.7360  -19.0680   10.2480 C.2   212  PRO212      0.2269
    212  O         19.3240  -18.0490    9.8880 O.2   212  PRO212     -0.2865
    213  CB        16.9000  -18.1710   11.7010 C.3   212  PRO212      0.0296
    214  CG        17.3810  -16.9530   12.3430 C.3   212  PRO212      0.0237
    215  CD        18.5910  -17.2940   13.1580 C.3   212  PRO212      0.0939
    216  N         15.3280  -20.9350    6.0360 N.3   216  LEU216     -0.1245
    217  CA        14.2430  -20.9400    7.0000 C.3   216  LEU216      0.1561
    218  C         13.5340  -19.5920    6.9820 C.2   216  LEU216      0.2260
    219  O         12.3010  -19.5250    6.9290 O.2   216  LEU216     -0.2867
    220  CB        14.8110  -21.2130    8.4060 C.3   216  LEU216      0.0270
    221  CG        13.7680  -21.2080    9.4950 C.3   216  LEU216      0.0019
    222  CD1       12.8330  -22.3880    9.3330 C.3   216  LEU216      0.0001
    223  CD2       14.5260  -21.2600   10.8530 C.3   216  LEU216      0.0001
@<TRIPOS>BOND
     1   216   217    1
     2   219   218    2
     3   218   217    1
     4   217   220    1
     5   220   221    1
     6   222   221    1
     7   221   223    1
     8   212   211    2
     9   211   210    1
    10   210   213    1
    11   210   209    1
    12   213   214    1
    13   208   206    1
    14   214   215    1
    15   205   204    2
    16   209   204   am
    17   209   215    1
    18   194   192   am
    19   204   203    1
    20   206   203    1
    21   206   207    1
    22    61    59    1
    23   193   192    2
    24    57    56    2
    25    59    60    1
    26    59    58    1
    27   192   191    1
    28   203   202    1
    29    56    55    1
    30    68    70   ar
    31    68    67   ar
    32    62    63    1
    33    66    67    1
    34    66    63    1
    35    58    55    1
    36   202   197   am
    37    70    71   ar
    38    67    69   ar
    39   191   188    1
    40    55    54    1
    41    63    64    1
    42   188   187    1
    43   188   189    1
    44    71    69   ar
    45    71    73   ar
    46    69    72   ar
    47   197   198    2
    48   197   196    1
    49   195   189   am
    50   195   196    1
    51    40    39    2
    52    54    47   am
    53    48    47    2
    54   189   190    2
    55    73    75   ar
    56   196   199    1
    57    64    76   am
    58    64    65    2
    59    72    74   ar
    60    47    46    1
    61   199   200    1
    62   199   201    1
    63    76    77    1
    64    39    38    1
    65    75    74   ar
    66    38    41    1
    67    38    37    1
    68    43    42   ar
    69    41    42    1
    70    42    44   ar
    71    46    45    1
    72    46    49    1
    73    35    34    2
    74    77    80    1
    75    77    78    1
    76    80    81    1
    77    37    34   am
    78    34    33    1
    79    78    79    2
    80    49    50    1
    81    91    89    1
    82    89    90    1
    83    89    88    1
    84    84    85    1
    85    81    83    1
    86    81    82    1
    87    33    36    1
    88    33    32    1
    89    50    51    1
    90    20    19    2
    91    88    85    1
    92    27    26    2
    93    85    86    1
    94    23    21    1
    95   186   184    1
    96   183   184    1
    97   183   180    1
    98    32    26   am
    99   181   182    2
   100   181   180    1
   101    26    25    1
   102    51    53   ar
   103    51    52   ar
   104    19    18    1
   105   184   185    1
   106    86    92   am
   107    86    87    2
   108    92    93    1
   109    21    18    1
   110    21    22    1
   111   180   179    1
   112    18    17    1
   113    25    24    1
   114    25    28    1
   115   167   168    2
   116   167   166    1
   117   179   171   am
   118    93    96    1
   119    93    94    1
   120    96    97    1
   121    12    11    2
   122    98    97    1
   123    98    99    1
   124   169   170    1
   125   165   166    1
   126    94    95    2
   127   171   172    2
   128   171   170    1
   129    17    11   am
   130    28    29    1
   131    30    29    1
   132    29    31    1
   133    11    10    1
   134   117   116    1
   135   170   173    1
   136   100   101    1
   137   118   116    1
   138   116   115    2
   139     4     3    2
   140   173   174    1
   141    10     9    1
   142    10    13    1
   143     8     7    1
   144   101   104    1
   145   101   102    1
   146     3     2    1
   147    13    14    1
   148   104   105    1
   149   115   114    1
   150   174   175   ar
   151   174   176   ar
   152   114   113    1
   153   122   121    2
   154   175   177   ar
   155     5     2    1
   156     5     6    1
   157   176   178   ar
   158   164   162    1
   159   102   103    2
   160   145   143    1
   161   113   112    1
   162     2     1    1
   163     7     6    1
   164   144   142    1
   165   107   105    1
   166   108   109    1
   167   105   106    1
   168    14    16    1
   169    14    15    1
   170   112   109    1
   171   126   128   ar
   172   126   124   ar
   173   177   178   ar
   174   143   142    1
   175   121   120    1
   176   128   129   ar
   177   163   162    1
   178   162   161    1
   179   109   110    1
   180   142   139    1
   181   120   123    1
   182   120   119    1
   183   123   124    1
   184   137   136    1
   185   124   125   ar
   186   129   127   ar
   187   161   158    1
   188   139   140    1
   189   139   138    1
   190   110   111    2
   191   158   157    1
   192   158   159    1
   193   141   140    2
   194   125   127   ar
   195   140   146   am
   196   136   135    1
   197   135   134    1
   198   160   159    2
   199   131   134    1
   200   131   130    1
   201   131   132    1
   202   146   147    1
   203   133   132    2
   204   147   148    1
   205   147   150    1
   206   149   148    2
   207   153   155   ar
   208   153   151   ar
   209   150   151    1
   210   155   156   ar
   211   151   152   ar
   212   156   154   ar
   213   152   154   ar
