@<TRIPOS>MOLECULE
tmp/2qynB00.pdb
 215 208 0 0 0
SMALL
GASTEIGER

@<TRIPOS>ATOM
      1  N          8.0120   14.2070   11.3060 N.3    72  TYR72      -0.1227
      2  CA         7.7390   12.7800   11.2410 C.3    72  TYR72       0.1736
      3  C          6.7470   12.2610   12.2830 C.2    72  TYR72       0.2595
      4  O          5.7250   11.6680   11.9270 O.2    72  TYR72      -0.2718
      5  CB         9.0490   11.9960   11.3480 C.3    72  TYR72       0.0548
      6  CG         8.8670   10.4980   11.2060 C.ar   72  TYR72      -0.0200
      7  CD1        8.9030    9.8820    9.9530 C.ar   72  TYR72      -0.0009
      8  CD2        8.6260    9.7040   12.3260 C.ar   72  TYR72      -0.0009
      9  CE1        8.7020    8.5000    9.8190 C.ar   72  TYR72       0.0417
     10  CE2        8.4210    8.3330   12.2050 C.ar   72  TYR72       0.0417
     11  CZ         8.4610    7.7360   10.9520 C.ar   72  TYR72       0.1957
     12  OH         8.2710    6.3740   10.8400 O.3    72  TYR72      -0.2866
     13  N          7.0500   12.4780   13.5600 N.am   73  HIS73      -0.1975
     14  CA         6.1850   11.9950   14.6340 C.3    73  HIS73       0.1656
     15  C          4.9270   12.8300   14.8330 C.2    73  HIS73       0.2291
     16  O          4.7580   13.5140   15.8430 O.2    73  HIS73      -0.2864
     17  CB         6.9830   11.8760   15.9400 C.3    73  HIS73       0.0771
     18  CG         7.9840   10.7630   15.9190 C.ar   73  HIS73       0.0820
     19  ND1        9.3290   10.9650   15.6860 N.ar   73  HIS73      -0.2267
     20  CD2        7.8180    9.4230   16.0250 C.ar   73  HIS73       0.1154
     21  CE1        9.9450    9.7960   15.6460 C.ar   73  HIS73       0.1986
     22  NE2        9.0500    8.8440   15.8470 N.ar   73  HIS73      -0.2212
     23  N          4.2390   13.9460   20.8250 N.3   117  HIS117     -0.1241
     24  CA         5.6780   13.7940   20.5990 C.3   117  HIS117      0.1621
     25  C          6.2420   15.1730   20.2470 C.2   117  HIS117      0.2264
     26  O          5.7210   15.8600   19.3700 O.2   117  HIS117     -0.2867
     27  CB         5.9440   12.8200   19.4420 C.3   117  HIS117      0.0745
     28  CG         7.3380   12.2710   19.4200 C.ar  117  HIS117      0.0817
     29  ND1        8.4520   13.0640   19.2360 N.ar  117  HIS117     -0.2268
     30  CD2        7.7970   11.0060   19.5660 C.ar  117  HIS117      0.1154
     31  CE1        9.5360   12.3090   19.2700 C.ar  117  HIS117      0.1986
     32  NE2        9.1660   11.0550   19.4690 N.ar  117  HIS117     -0.2212
     33  N         14.3530   13.0860   20.5800 N.3   121  SER121     -0.1202
     34  CA        14.5070   11.7610   21.1860 C.3   121  SER121      0.2020
     35  C         14.5590   11.7110   22.7120 C.2   121  SER121      0.2618
     36  O         14.7120   12.7360   23.3760 O.2   121  SER121     -0.2717
     37  CB        15.7750   11.1010   20.6510 C.3   121  SER121      0.2103
     38  OG        16.9250   11.7500   21.1760 O.3   121  SER121     -0.2182
     39  N         14.4370   10.5000   23.2540 N.am  122  ASN122     -0.1974
     40  CA        14.5060   10.3070   24.6990 C.3   122  ASN122      0.1688
     41  C         15.8700   10.7690   25.1920 C.2   122  ASN122      0.2292
     42  O         15.9720   11.4450   26.2150 O.2   122  ASN122     -0.2864
     43  CB        14.3140    8.8350   25.0730 C.3   122  ASN122      0.1181
     44  CG        12.8540    8.4400   25.1530 C.2   122  ASN122      0.2629
     45  OD1       12.0110    9.2490   25.5340 O.2   122  ASN122     -0.2716
     46  ND2       12.5510    7.1900   24.8160 N.am  122  ASN122     -0.0877
     47  N          9.4390    9.3510   26.6690 N.3   142  LEU142     -0.1231
     48  CA         8.3670    9.6850   25.7460 C.3   142  LEU142      0.1693
     49  C          7.2330    8.6650   25.7420 C.2   142  LEU142      0.2591
     50  O          6.0670    9.0440   25.7530 O.2   142  LEU142     -0.2718
     51  CB         8.9270    9.8570   24.3330 C.3   142  LEU142      0.0284
     52  CG         9.5920   11.2280   24.1520 C.3   142  LEU142      0.0019
     53  CD1       10.3010   11.2900   22.8190 C.3   142  LEU142      0.0001
     54  CD2        8.5350   12.3230   24.2570 C.3   142  LEU142      0.0001
     55  N          7.5810    7.3810   25.7510 N.am  143  GLU143     -0.1979
     56  CA         6.5730    6.3290   25.7130 C.3   143  GLU143      0.1602
     57  C          5.6380    6.3720   26.9270 C.2   143  GLU143      0.2287
     58  O          4.4320    6.1280   26.7940 O.2   143  GLU143     -0.2864
     59  CB         7.2570    4.9600   25.5710 C.3   143  GLU143      0.0415
     60  CG         7.9910    4.7720   24.2320 C.3   143  GLU143      0.1163
     61  CD         9.3090    5.5350   24.1380 C.2   143  GLU143      0.3649
     62  OE1        9.9190    5.8190   25.1920 O.co2 143  GLU143     -0.2457
     63  OE2        9.7510    5.8290   23.0020 O.co2 143  GLU143     -0.2457
     64  N          7.5060    0.1480   22.4280 N.3   184  THR184     -0.1218
     65  CA         7.8990    0.8690   21.2190 C.3   184  THR184      0.1862
     66  C          9.1410    1.7170   21.4700 C.2   184  THR184      0.2287
     67  O          9.6720    2.3350   20.5500 O.2   184  THR184     -0.2866
     68  CB         6.7640    1.7700   20.6560 C.3   184  THR184      0.1770
     69  OG1        6.4150    2.7860   21.6050 O.3   184  THR184     -0.2211
     70  CG2        5.5490    0.9350   20.3310 C.3   184  THR184      0.0375
     71  N         12.5510    2.6020   21.3810 N.3   186  MET186     -0.1245
     72  CA        13.5790    2.0470   20.5120 C.3   186  MET186      0.1570
     73  C         14.7830    1.4400   21.2270 C.2   186  MET186      0.2261
     74  O         15.4920    0.6140   20.6510 O.2   186  MET186     -0.2867
     75  CB        14.0390    3.1030   19.5010 C.3   186  MET186      0.0387
     76  CG        12.9440    3.5310   18.5220 C.3   186  MET186      0.0595
     77  SD        12.2920    2.1610   17.5300 S.3   186  MET186     -0.1393
     78  CE        10.9620    2.9830   16.6270 C.3   186  MET186      0.0692
     79  N          5.7390    0.1090   13.5270 N.3   231  ASP231     -0.1225
     80  CA         6.4470    1.3610   13.8090 C.3   231  ASP231      0.1805
     81  C          7.6620    1.4620   12.8790 C.2   231  ASP231      0.2597
     82  O          8.0470    2.5560   12.4440 O.2   231  ASP231     -0.2718
     83  CB         6.8870    1.3500   15.2800 C.3   231  ASP231      0.1424
     84  CG         7.0890    2.7410   15.8610 C.2   231  ASP231      0.3668
     85  OD1        6.6230    3.7380   15.2690 O.co2 231  ASP231     -0.2456
     86  OD2        7.7010    2.8200   16.9460 O.co2 231  ASP231     -0.2456
     87  N          8.2520    0.3130   12.5670 N.am  232  LEU232     -0.1979
     88  CA         9.4210    0.2520   11.6960 C.3   232  LEU232      0.1596
     89  C          9.0710   -0.3470   10.3340 C.2   232  LEU232      0.2287
     90  O          9.8580   -1.0990    9.7660 O.2   232  LEU232     -0.2864
     91  CB        10.5190   -0.5820   12.3590 C.3   232  LEU232      0.0297
     92  CG        11.1400    0.0100   13.6260 C.3   232  LEU232      0.0022
     93  CD1       12.0850   -0.9850   14.2570 C.3   232  LEU232      0.0001
     94  CD2       11.8780    1.2940   13.2710 C.3   232  LEU232      0.0001
     95  N          8.1260    1.6040    7.5240 N.3   234  ASN234     -0.1226
     96  CA         8.3440    2.5240    6.4080 C.3   234  ASN234      0.1770
     97  C          9.1710    1.9200    5.2680 C.2   234  ASN234      0.2439
     98  O          8.7750    2.0080    4.1050 O.2   234  ASN234     -0.2733
     99  CB         9.0260    3.8110    6.8930 C.3   234  ASN234      0.1168
    100  CG         8.1530    4.6410    7.8300 C.2   234  ASN234      0.2627
    101  OD1        8.6400    5.5880    8.4480 O.2   234  ASN234     -0.2716
    102  ND2        6.8670    4.3060    7.9310 N.am  234  ASN234     -0.0877
    103  N         10.3290    1.3030    5.5800 N.am  235  PRO235     -0.2729
    104  CA        11.1810    0.7020    4.5420 C.3   235  PRO235      0.1401
    105  C         10.5800   -0.4900    3.7940 C.2   235  PRO235      0.2269
    106  O         11.1290   -0.9300    2.7810 O.2   235  PRO235     -0.2865
    107  CB        12.4400    0.3030    5.3080 C.3   235  PRO235      0.0296
    108  CG        12.4690    1.2610    6.4630 C.3   235  PRO235      0.0237
    109  CD        11.0210    1.2860    6.8820 C.3   235  PRO235      0.0939
    110  N          7.9500    5.2980    1.1480 N.3   242  TYR242     -0.1241
    111  CA         9.1640    5.1830    1.9480 C.3   242  TYR242      0.1605
    112  C         10.0220    6.4450    1.8210 C.2   242  TYR242      0.2264
    113  O         10.4840    6.9960    2.8230 O.2   242  TYR242     -0.2867
    114  CB         9.9420    3.9350    1.5030 C.3   242  TYR242      0.0534
    115  CG        11.2720    3.6710    2.1860 C.ar  242  TYR242     -0.0201
    116  CD1       11.6090    4.2620    3.4100 C.ar  242  TYR242     -0.0009
    117  CD2       12.1940    2.8060    1.6020 C.ar  242  TYR242     -0.0009
    118  CE1       12.8450    3.9900    4.0230 C.ar  242  TYR242      0.0417
    119  CE2       13.4120    2.5280    2.2010 C.ar  242  TYR242      0.0417
    120  CZ        13.7370    3.1210    3.4070 C.ar  242  TYR242      0.1957
    121  OH        14.9570    2.8300    3.9700 O.3   242  TYR242     -0.2866
    122  N          8.6700    9.2280    3.8680 N.3   245  TRP245     -0.1227
    123  CA         8.8980    8.9990    5.2930 C.3   245  TRP245      0.1737
    124  C         10.3390    9.3350    5.6540 C.2   245  TRP245      0.2596
    125  O         10.6040    9.8960    6.7110 O.2   245  TRP245     -0.2718
    126  CB         8.5980    7.5400    5.6670 C.3   245  TRP245      0.0564
    127  CG         7.1310    7.2250    5.7150 C.ar  245  TRP245      0.0003
    128  CD1        6.4750    6.2520    5.0090 C.ar  245  TRP245      0.0946
    129  CD2        6.1360    7.8890    6.5000 C.ar  245  TRP245      0.0152
    130  NE1        5.1320    6.2740    5.3070 N.ar  245  TRP245     -0.2442
    131  CE2        4.8950    7.2680    6.2190 C.ar  245  TRP245      0.0810
    132  CE3        6.1690    8.9500    7.4150 C.ar  245  TRP245      0.0012
    133  CZ2        3.6990    7.6750    6.8210 C.ar  245  TRP245      0.0191
    134  CZ3        4.9750    9.3560    8.0150 C.ar  245  TRP245      0.0001
    135  CH2        3.7590    8.7170    7.7120 C.ar  245  TRP245      0.0015
    136  N         11.2690    8.9910    4.7680 N.am  246  THR246     -0.1953
    137  CA        12.6800    9.2740    5.0000 C.3   246  THR246      0.1897
    138  C         12.9250   10.7850    5.0230 C.2   246  THR246      0.2313
    139  O         13.6520   11.2850    5.8850 O.2   246  THR246     -0.2863
    140  CB        13.5590    8.6220    3.9130 C.3   246  THR246      0.1794
    141  OG1       13.4670    7.1970    4.0180 O.3   246  THR246     -0.2208
    142  CG2       15.0140    9.0170    4.0820 C.3   246  THR246      0.0378
    143  N         11.6610   12.0290    8.4850 N.3   249  ILE249     -0.1231
    144  CA        12.4690   11.7150    9.6580 C.3   249  ILE249      0.1692
    145  C         13.7860   12.4890    9.6260 C.2   249  ILE249      0.2591
    146  O         14.2610   12.9480   10.6620 O.2   249  ILE249     -0.2718
    147  CB        12.7580   10.1930    9.7930 C.3   249  ILE249      0.0266
    148  CG1       13.3560    9.9090   11.1740 C.3   249  ILE249      0.0019
    149  CG2       13.7200    9.7320    8.7230 C.3   249  ILE249      0.0020
    150  CD1       12.4210   10.2450   12.3320 C.3   249  ILE249      0.0001
    151  N         14.3680   12.6510    8.4400 N.am  250  MET250     -0.1979
    152  CA        15.6200   13.3980    8.3300 C.3   250  MET250      0.1605
    153  C         15.4140   14.8730    8.6870 C.2   250  MET250      0.2287
    154  O         16.2880   15.5000    9.2860 O.2   250  MET250     -0.2864
    155  CB        16.1980   13.2830    6.9170 C.3   250  MET250      0.0413
    156  CG        16.7030   11.8900    6.5560 C.3   250  MET250      0.0598
    157  SD        17.7990   11.1580    7.7970 S.3   250  MET250     -0.1393
    158  CE        19.1480   12.3270    7.8220 C.3   250  MET250      0.0692
    159  N         15.2330   14.9670   12.4060 N.3   253  PHE253     -0.1241
    160  CA        16.5670   14.7230   12.9510 C.3   253  PHE253      0.1605
    161  C         17.4440   15.9660   12.8490 C.2   253  PHE253      0.2264
    162  O         18.1240   16.3390   13.8070 O.2   253  PHE253     -0.2867
    163  CB        17.2870   13.6000   12.1990 C.3   253  PHE253      0.0534
    164  CG        16.8120   12.2170   12.5390 C.ar  253  PHE253     -0.0203
    165  CD1       16.1480   11.9520   13.7340 C.ar  253  PHE253     -0.0042
    166  CD2       17.0780   11.1620   11.6750 C.ar  253  PHE253     -0.0042
    167  CE1       15.7590   10.6530   14.0610 C.ar  253  PHE253     -0.0003
    168  CE2       16.6940    9.8590   11.9940 C.ar  253  PHE253     -0.0003
    169  CZ        16.0340    9.6070   13.1890 C.ar  253  PHE253     -0.0000
    170  N         23.3150   10.8970   12.6010 N.3   270  MET270     -0.1245
    171  CA        22.4020   11.2420   11.5170 C.3   270  MET270      0.1570
    172  C         21.6070   12.5220   11.7560 C.2   270  MET270      0.2261
    173  O         20.6580   12.8110   11.0270 O.2   270  MET270     -0.2867
    174  CB        21.4420   10.0760   11.2860 C.3   270  MET270      0.0387
    175  CG        22.1390    8.7290   11.3230 C.3   270  MET270      0.0595
    176  SD        21.0150    7.3840   11.6720 S.3   270  MET270     -0.1393
    177  CE        20.5330    7.7580   13.3560 C.3   270  MET270      0.0692
    178  N         22.7890    5.8730    5.4150 N.3   281  SER281     -0.1202
    179  CA        22.1160    5.6610    6.6880 C.3   281  SER281      0.2020
    180  C         20.9090    4.7480    6.5470 C.2   281  SER281      0.2618
    181  O         20.6710    3.8990    7.4040 O.2   281  SER281     -0.2717
    182  CB        21.6870    6.9940    7.2990 C.3   281  SER281      0.2103
    183  OG        22.8180    7.7250    7.7430 O.3   281  SER281     -0.2182
    184  N         20.1460    4.9190    5.4710 N.am  282  GLN282     -0.1979
    185  CA        18.9750    4.0770    5.2570 C.3   282  GLN282      0.1601
    186  C         19.3790    2.6280    5.0310 C.2   282  GLN282      0.2287
    187  O         18.7390    1.7150    5.5490 O.2   282  GLN282     -0.2864
    188  CB        18.1430    4.5820    4.0730 C.3   282  GLN282      0.0394
    189  CG        17.2690    5.7780    4.4080 C.3   282  GLN282      0.0908
    190  CD        16.4000    5.5360    5.6320 C.2   282  GLN282      0.2608
    191  OE1       15.6490    4.5610    5.6930 O.2   282  GLN282     -0.2717
    192  NE2       16.4980    6.4250    6.6140 N.am  282  GLN282     -0.0878
    193  N         22.0440    1.2190    6.1520 N.3   284  GLY284     -0.1210
    194  CA        22.4990    0.7300    7.4440 C.3   284  GLY284      0.1956
    195  C         21.3260    0.4360    8.3610 C.2   284  GLY284      0.2611
    196  O         21.3250   -0.5570    9.0880 O.2   284  GLY284     -0.2717
    197  N         20.3270    1.3120    8.3260 N.am  285  PHE285     -0.1976
    198  CA        19.1170    1.1680    9.1290 C.3   285  PHE285      0.1639
    199  C         18.4530   -0.1510    8.7520 C.2   285  PHE285      0.2290
    200  O         18.0420   -0.9280    9.6150 O.2   285  PHE285     -0.2864
    201  CB        18.1890    2.3540    8.8370 C.3   285  PHE285      0.0560
    202  CG        16.8640    2.3150    9.5590 C.ar  285  PHE285     -0.0200
    203  CD1       16.7920    2.0320   10.9180 C.ar  285  PHE285     -0.0042
    204  CD2       15.6930    2.6520    8.8840 C.ar  285  PHE285     -0.0042
    205  CE1       15.5680    2.0950   11.6010 C.ar  285  PHE285     -0.0003
    206  CE2       14.4690    2.7180    9.5520 C.ar  285  PHE285     -0.0003
    207  CZ        14.4090    2.4390   10.9180 C.ar  285  PHE285     -0.0000
    208  N         18.8530   -3.0340   11.5770 N.3   289  ILE289     -0.1245
    209  CA        17.6490   -2.9650   12.3980 C.3   289  ILE289      0.1561
    210  C         16.3760   -3.5180   11.7720 C.2   289  ILE289      0.2260
    211  O         15.7990   -4.4810   12.2700 O.2   289  ILE289     -0.2867
    212  CB        17.3600   -1.5010   12.8280 C.3   289  ILE289      0.0252
    213  CG1       18.5430   -0.9460   13.6230 C.3   289  ILE289      0.0019
    214  CG2       16.0820   -1.4360   13.6540 C.3   289  ILE289      0.0019
    215  CD1       18.4010    0.5140   14.0060 C.3   289  ILE289      0.0001
@<TRIPOS>BOND
     1   110   111    1
     2   114   111    1
     3   114   115    1
     4   117   115   ar
     5   117   119   ar
     6   112   111    1
     7   112   113    2
     8   115   116   ar
     9   119   120   ar
    10   106   105    2
    11   120   121    1
    12   120   118   ar
    13   116   118   ar
    14   105   104    1
    15   122   123    1
    16   140   141    1
    17   140   142    1
    18   140   137    1
    19   188   189    1
    20   188   185    1
    21    98    97    2
    22   189   190    1
    23   104   107    1
    24   104   103    1
    25   136   137    1
    26   136   124   am
    27   137   138    1
    28   128   130   ar
    29   128   127   ar
    30   138   139    2
    31   186   185    1
    32   186   187    2
    33   185   184    1
    34    97   103   am
    35    97    96    1
    36   123   124    1
    37   123   126    1
    38   130   131   ar
    39   107   108    1
    40   178   179    1
    41   184   180   am
    42   103   109    1
    43   190   191    2
    44   190   192   am
    45   124   125    2
    46   126   127    1
    47   127   129   ar
    48   193   194    1
    49   131   129   ar
    50   131   133   ar
    51    96    99    1
    52    96    95    1
    53   108   109    1
    54   129   132   ar
    55   180   179    1
    56   180   181    2
    57   156   155    1
    58   156   157    1
    59   179   182    1
    60   133   135   ar
    61    99   100    1
    62   155   152    1
    63   182   183    1
    64   132   134   ar
    65   194   195    1
    66   135   134   ar
    67   157   158    1
    68   100   102   am
    69   100   101    2
    70   197   195   am
    71   197   198    1
    72   152   151    1
    73   152   153    1
    74   195   196    2
    75   151   145   am
    76   143   144    1
    77   153   154    2
    78   149   147    1
    79   199   198    1
    80   199   200    2
    81   201   198    1
    82   201   202    1
    83   204   206   ar
    84   204   202   ar
    85   206   207   ar
    86   202   203   ar
    87   145   144    1
    88   145   146    2
    89   144   147    1
    90    90    89    2
    91   147   148    1
    92     9     7   ar
    93     9    11   ar
    94     7     6   ar
    95    89    88    1
    96    12    11    1
    97   207   205   ar
    98   203   205   ar
    99    11    10   ar
   100   173   172    2
   101   148   150    1
   102     6     5    1
   103     6     8   ar
   104     2     1    1
   105     2     5    1
   106     2     3    1
   107   174   175    1
   108   174   171    1
   109   175   176    1
   110   171   172    1
   111   171   170    1
   112   208   209    1
   113   176   177    1
   114   166   168   ar
   115   166   164   ar
   116    88    91    1
   117    88    87    1
   118   210   211    2
   119   210   209    1
   120     4     3    2
   121   168   169   ar
   122   163   164    1
   123   163   160    1
   124    10     8   ar
   125     3    13   am
   126    91    92    1
   127   209   212    1
   128   159   160    1
   129    82    81    2
   130   164   165   ar
   131    87    81   am
   132   212   213    1
   133   212   214    1
   134   161   160    1
   135   161   162    2
   136    81    80    1
   137   169   167   ar
   138    94    92    1
   139    79    80    1
   140    13    14    1
   141   213   215    1
   142    92    93    1
   143   165   167   ar
   144    80    83    1
   145    14    15    1
   146    14    17    1
   147    15    16    2
   148    85    84   ar
   149    83    84    1
   150    21    19   ar
   151    21    22   ar
   152    19    18   ar
   153    22    20   ar
   154    84    86   ar
   155    18    17    1
   156    18    20   ar
   157    78    77    1
   158    77    76    1
   159    76    75    1
   160    29    31   ar
   161    29    28   ar
   162    31    32   ar
   163    26    25    2
   164    28    27    1
   165    28    30   ar
   166    27    24    1
   167    32    30   ar
   168    75    72    1
   169    25    24    1
   170    70    68    1
   171    72    73    1
   172    72    71    1
   173    67    66    2
   174    33    34    1
   175    24    23    1
   176    74    73    2
   177    37    38    1
   178    37    34    1
   179    68    65    1
   180    68    69    1
   181    34    35    1
   182    65    66    1
   183    65    64    1
   184    35    39   am
   185    35    36    2
   186    53    52    1
   187    63    61   ar
   188    39    40    1
   189    61    60    1
   190    61    62   ar
   191    52    54    1
   192    52    51    1
   193    60    59    1
   194    51    48    1
   195    40    43    1
   196    40    41    1
   197    46    44   am
   198    43    44    1
   199    44    45    2
   200    41    42    2
   201    59    56    1
   202    56    55    1
   203    56    57    1
   204    49    48    1
   205    49    55   am
   206    49    50    2
   207    48    47    1
   208    58    57    2
