@<TRIPOS>MOLECULE
tmp/2qyoA00.pdb
 138 134 0 0 0
SMALL
GASTEIGER

@<TRIPOS>ATOM
      1  N         10.2360   -3.1790  -11.0740 N.3   195  ASP195     -0.1239
      2  CA         9.6510   -3.1310   -9.7430 C.3   195  ASP195      0.1674
      3  C          8.3960   -4.0010   -9.7940 C.2   195  ASP195      0.2266
      4  O          7.3370   -3.5600  -10.2560 O.2   195  ASP195     -0.2867
      5  CB         9.2990   -1.6880   -9.3680 C.3   195  ASP195      0.1410
      6  CG         8.9330   -1.5460   -7.9100 C.2   195  ASP195      0.3668
      7  OD1        8.9320   -2.5760   -7.2000 O.co2 195  ASP195     -0.2456
      8  OD2        8.6490   -0.4100   -7.4690 O.co2 195  ASP195     -0.2456
      9  N          5.1960   -5.6560   -8.6270 N.3   197  GLY197     -0.1210
     10  CA         4.1770   -5.2860   -7.6620 C.3   197  GLY197      0.1956
     11  C          4.4550   -3.8300   -7.3380 C.2   197  GLY197      0.2612
     12  O          4.2690   -3.3830   -6.2070 O.2   197  GLY197     -0.2717
     13  N          4.8920   -3.0880   -8.3540 N.am  198  GLY198     -0.1942
     14  CA         5.2410   -1.6850   -8.1900 C.3   198  GLY198      0.2014
     15  C          4.1280   -0.6790   -7.9660 C.2   198  GLY198      0.2639
     16  O          4.4000    0.5000   -7.7290 O.2   198  GLY198     -0.2714
     17  N          2.8780   -1.1240   -8.0510 N.am  199  GLY199     -0.1954
     18  CA         1.7650   -0.2190   -7.8310 C.3   199  GLY199      0.1869
     19  C          1.6980    0.9410   -8.8050 C.2   199  GLY199      0.2309
     20  O          1.8820    0.7580  -10.0070 O.2   199  GLY199     -0.2863
     21  N          7.4470    4.2000   -6.1980 N.3   203  THR203     -0.1218
     22  CA         8.7870    3.7080   -5.9120 C.3   203  THR203      0.1862
     23  C          9.6920    3.8020   -7.1440 C.2   203  THR203      0.2287
     24  O         10.8480    4.2070   -7.0450 O.2   203  THR203     -0.2866
     25  CB         8.7410    2.2400   -5.4210 C.3   203  THR203      0.1770
     26  OG1        7.9320    2.1610   -4.2410 O.3   203  THR203     -0.2211
     27  CG2       10.1380    1.7360   -5.0970 C.3   203  THR203      0.0375
     28  N          5.9170   -2.8810  -12.8020 N.3   219  PHE219     -0.1227
     29  CA         5.1200   -4.0510  -13.1470 C.3   219  PHE219      0.1736
     30  C          4.0890   -4.4230  -12.0760 C.2   219  PHE219      0.2595
     31  O          4.4360   -4.6750  -10.9180 O.2   219  PHE219     -0.2718
     32  CB         6.0750   -5.2220  -13.4020 C.3   219  PHE219      0.0547
     33  CG         5.3930   -6.5160  -13.7310 C.ar  219  PHE219     -0.0202
     34  CD1        5.3310   -7.5400  -12.7930 C.ar  219  PHE219     -0.0042
     35  CD2        4.8330   -6.7220  -14.9900 C.ar  219  PHE219     -0.0042
     36  CE1        4.7260   -8.7550  -13.1010 C.ar  219  PHE219     -0.0003
     37  CE2        4.2230   -7.9350  -15.3110 C.ar  219  PHE219     -0.0003
     38  CZ         4.1710   -8.9550  -14.3640 C.ar  219  PHE219     -0.0000
     39  N          2.8200   -4.4630  -12.4690 N.am  220  ASP220     -0.1960
     40  CA         1.7510   -4.8140  -11.5420 C.3   220  ASP220      0.1840
     41  C          0.5590   -5.3560  -12.3410 C.2   220  ASP220      0.2621
     42  O          0.6750   -5.6120  -13.5400 O.2   220  ASP220     -0.2715
     43  CB         1.3450   -3.5760  -10.7250 C.3   220  ASP220      0.1450
     44  CG         0.8790   -3.9270   -9.3200 C.2   220  ASP220      0.3671
     45  OD1       -0.1650   -4.5970   -9.1860 O.co2 220  ASP220     -0.2456
     46  OD2        1.5620   -3.5360   -8.3450 O.co2 220  ASP220     -0.2456
     47  N         -0.5760   -5.5460  -11.6780 N.am  221  ARG221     -0.1977
     48  CA        -1.7720   -6.0440  -12.3520 C.3   221  ARG221      0.1597
     49  C         -2.2770   -4.9920  -13.3420 C.2   221  ARG221      0.2287
     50  O         -2.1530   -3.7860  -13.0980 O.2   221  ARG221     -0.2864
     51  CB        -2.8620   -6.3580  -11.3240 C.3   221  ARG221      0.0334
     52  CG        -2.4750   -7.4340  -10.3200 C.3   221  ARG221      0.0492
     53  CD        -2.2100   -8.7580  -11.0180 C.3   221  ARG221      0.2205
     54  NE        -3.4040   -9.2580  -11.6950 N.pl3 221  ARG221     -0.0865
     55  CZ        -3.4170  -10.2930  -12.5260 C.cat 221  ARG221      0.5346
     56  NH1       -2.2940  -10.9440  -12.7890 N.pl3 221  ARG221      0.1354
     57  NH2       -4.5520  -10.6760  -13.0950 N.pl3 221  ARG221      0.1354
     58  N         -4.2020   -2.0670  -12.0860 N.3   224  VAL224     -0.1245
     59  CA        -3.4470   -1.1780  -11.2200 C.3   224  VAL224      0.1561
     60  C         -2.6800   -0.1390  -12.0340 C.2   224  VAL224      0.2260
     61  O         -2.6090    1.0250  -11.6480 O.2   224  VAL224     -0.2867
     62  CB        -2.4530   -1.9610  -10.3350 C.3   224  VAL224      0.0252
     63  CG1       -1.5560   -0.9890   -9.5700 C.3   224  VAL224      0.0019
     64  CG2       -3.2180   -2.8510   -9.3630 C.3   224  VAL224      0.0019
     65  N          0.5840   -7.2240  -15.8450 N.3   239  GLY239     -0.1210
     66  CA         0.7730   -8.6600  -15.9360 C.3   239  GLY239      0.1956
     67  C          0.5230   -9.4040  -14.6410 C.2   239  GLY239      0.2612
     68  O         -0.0490   -8.8520  -13.7010 O.2   239  GLY239     -0.2717
     69  N          0.9520  -10.6630  -14.6000 N.am  240  ASP240     -0.1959
     70  CA         0.7880  -11.5260  -13.4310 C.3   240  ASP240      0.1840
     71  C          2.1680  -12.0620  -13.0680 C.2   240  ASP240      0.2622
     72  O          2.7370  -12.8530  -13.8180 O.2   240  ASP240     -0.2715
     73  CB        -0.1360  -12.6990  -13.7760 C.3   240  ASP240      0.1450
     74  CG        -0.5440  -13.5070  -12.5530 C.2   240  ASP240      0.3671
     75  OD1        0.2280  -13.5400  -11.5700 O.co2 240  ASP240     -0.2456
     76  OD2       -1.6340  -14.1240  -12.5800 O.co2 240  ASP240     -0.2456
     77  N          2.7060  -11.6400  -11.9250 N.am  241  MET241     -0.1963
     78  CA         4.0350  -12.0850  -11.5100 C.3   241  MET241      0.1736
     79  C          4.1730  -13.6000  -11.3730 C.2   241  MET241      0.2616
     80  O          5.2860  -14.1220  -11.4220 O.2   241  MET241     -0.2715
     81  CB         4.4490  -11.4130  -10.1900 C.3   241  MET241      0.0427
     82  CG         3.6240  -11.8030   -8.9720 C.3   241  MET241      0.0599
     83  SD         4.0510  -10.7490   -7.5600 S.3   241  MET241     -0.1393
     84  CE         2.7500  -11.1820   -6.3770 C.3   241  MET241      0.0692
     85  N          3.0580  -14.3050  -11.1930 N.am  242  PHE242     -0.1974
     86  CA         3.1060  -15.7660  -11.0690 C.3   242  PHE242      0.1639
     87  C          3.2340  -16.4400  -12.4260 C.2   242  PHE242      0.2290
     88  O          3.5920  -17.6140  -12.5150 O.2   242  PHE242     -0.2864
     89  CB         1.8510  -16.3040  -10.3710 C.3   242  PHE242      0.0560
     90  CG         1.7520  -15.9260   -8.9290 C.ar  242  PHE242     -0.0200
     91  CD1        1.1980  -14.7080   -8.5510 C.ar  242  PHE242     -0.0042
     92  CD2        2.2320  -16.7810   -7.9440 C.ar  242  PHE242     -0.0042
     93  CE1        1.1220  -14.3460   -7.2070 C.ar  242  PHE242     -0.0003
     94  CE2        2.1610  -16.4260   -6.5980 C.ar  242  PHE242     -0.0003
     95  CZ         1.6050  -15.2090   -6.2320 C.ar  242  PHE242     -0.0000
     96  N          9.3060   -4.8950   -3.1830 N.3   254  LYS254     -0.1231
     97  CA         9.2230   -4.0850   -1.9720 C.3   254  LYS254      0.1693
     98  C          7.8690   -4.1990   -1.2890 C.2   254  LYS254      0.2592
     99  O          6.8400   -3.8160   -1.8510 O.2   254  LYS254     -0.2718
    100  CB         9.5240   -2.6230   -2.3130 C.3   254  LYS254      0.0285
    101  CG         9.2670   -1.6390   -1.1830 C.3   254  LYS254      0.0035
    102  CD         9.4890   -0.2130   -1.6640 C.3   254  LYS254      0.0206
    103  CE         9.0470    0.8190   -0.6310 C.3   254  LYS254      0.1093
    104  NZ         7.5860    0.7790   -0.3580 N.3   254  LYS254     -0.1314
    105  N          7.8700   -4.7260   -0.0680 N.am  255  ALA255     -0.1966
    106  CA         6.6360   -4.8890    0.6840 C.3   255  ALA255      0.1728
    107  C          5.6460   -5.7330   -0.1050 C.2   255  ALA255      0.2616
    108  O          4.4440   -5.4770   -0.0820 O.2   255  ALA255     -0.2715
    109  CB         6.0240   -3.5260    1.0010 C.3   255  ALA255      0.0334
    110  N          6.1600   -6.7290   -0.8150 N.am  256  VAL256     -0.1977
    111  CA         5.3170   -7.6250   -1.5980 C.3   256  VAL256      0.1596
    112  C          5.2330   -9.0140   -0.9620 C.2   256  VAL256      0.2287
    113  O          4.1420   -9.5030   -0.6550 O.2   256  VAL256     -0.2864
    114  CB         5.8470   -7.7930   -3.0450 C.3   256  VAL256      0.0276
    115  CG1        5.1290   -8.9660   -3.7290 C.3   256  VAL256      0.0022
    116  CG2        5.6250   -6.5150   -3.8410 C.3   256  VAL256      0.0022
    117  N          3.0540  -10.3390    2.0350 N.3   259  ASP259     -0.1225
    118  CA         1.6180  -10.5520    1.8570 C.3   259  ASP259      0.1805
    119  C          1.3010  -11.9750    1.4080 C.2   259  ASP259      0.2597
    120  O          0.1270  -12.3340    1.2740 O.2   259  ASP259     -0.2718
    121  CB         1.0370   -9.6000    0.8070 C.3   259  ASP259      0.1424
    122  CG         1.2390   -8.1470    1.1520 C.2   259  ASP259      0.3668
    123  OD1        0.9500   -7.7630    2.3050 O.co2 259  ASP259     -0.2456
    124  OD2        1.6770   -7.3870    0.2600 O.co2 259  ASP259     -0.2456
    125  N          2.3320  -12.7850    1.1760 N.am  260  TRP260     -0.1976
    126  CA         2.1150  -14.1480    0.6990 C.3   260  TRP260      0.1640
    127  C          2.6950  -15.2590    1.5620 C.2   260  TRP260      0.2290
    128  O          3.6570  -15.0550    2.3060 O.2   260  TRP260     -0.2864
    129  CB         2.6800  -14.3130   -0.7150 C.3   260  TRP260      0.0576
    130  CG         2.2090  -13.2930   -1.6920 C.ar  260  TRP260      0.0006
    131  CD1        2.7540  -12.0600   -1.9220 C.ar  260  TRP260      0.0946
    132  CD2        1.0800  -13.4020   -2.5640 C.ar  260  TRP260      0.0152
    133  NE1        2.0330  -11.3970   -2.8860 N.ar  260  TRP260     -0.2442
    134  CE2        0.9990  -12.1970   -3.2970 C.ar  260  TRP260      0.0810
    135  CE3        0.1270  -14.4040   -2.8000 C.ar  260  TRP260      0.0012
    136  CZ2        0.0000  -11.9630   -4.2510 C.ar  260  TRP260      0.0191
    137  CZ3       -0.8660  -14.1740   -3.7490 C.ar  260  TRP260      0.0001
    138  CH2       -0.9200  -12.9610   -4.4620 C.ar  260  TRP260      0.0015
@<TRIPOS>BOND
     1    66    65    1
     2    66    67    1
     3    37    35   ar
     4    37    38   ar
     5    35    33   ar
     6    67    69   am
     7    67    68    2
     8    69    70    1
     9    38    36   ar
    10    72    71    2
    11    73    70    1
    12    73    74    1
    13    33    32    1
    14    33    34   ar
    15    42    41    2
    16    70    71    1
    17    32    29    1
    18    49    50    2
    19    49    48    1
    20    29    28    1
    21    29    30    1
    22    36    34   ar
    23    57    55    1
    24    71    77   am
    25    56    55    1
    26    76    74   ar
    27    74    75   ar
    28    55    54    2
    29    88    87    2
    30    39    30   am
    31    39    40    1
    32    87    86    1
    33    48    47    1
    34    48    51    1
    35    41    47   am
    36    41    40    1
    37    58    59    1
    38    30    31    2
    39    60    61    2
    40    60    59    1
    41    77    78    1
    42    54    53    1
    43    40    43    1
    44    78    79    1
    45    78    81    1
    46    80    79    2
    47    79    85   am
    48    51    52    1
    49    59    62    1
    50    85    86    1
    51     1     2    1
    52    86    89    1
    53    53    52    1
    54    43    44    1
    55    89    90    1
    56    62    63    1
    57    62    64    1
    58     4     3    2
    59    81    82    1
    60    20    19    2
    61     3     2    1
    62     2     5    1
    63     5     6    1
    64    44    45   ar
    65    44    46   ar
    66    82    83    1
    67    90    91   ar
    68    90    92   ar
    69    19    18    1
    70     9    10    1
    71    91    93   ar
    72    13    14    1
    73    13    11   am
    74    14    15    1
    75    17    15   am
    76    17    18    1
    77    15    16    2
    78    92    94   ar
    79     6     8   ar
    80     6     7   ar
    81    10    11    1
    82    83    84    1
    83    11    12    2
    84    93    95   ar
    85    23    24    2
    86    23    22    1
    87    94    95   ar
    88    21    22    1
    89    22    25    1
    90    25    27    1
    91    25    26    1
    92   138   136   ar
    93   138   137   ar
    94   136   134   ar
    95   116   114    1
    96   137   135   ar
    97   115   114    1
    98   134   133   ar
    99   134   132   ar
   100    96    97    1
   101   114   111    1
   102   133   131   ar
   103   135   132   ar
   104   132   130   ar
   105   100    97    1
   106   100   101    1
   107    97    98    1
   108   131   130   ar
   109    99    98    2
   110   130   129    1
   111   102   101    1
   112   102   103    1
   113   111   112    1
   114   111   110    1
   115    98   105   am
   116   112   113    2
   117   110   107   am
   118   129   126    1
   119   103   104    1
   120   107   108    2
   121   107   106    1
   122   105   106    1
   123   124   122   ar
   124   106   109    1
   125   126   125    1
   126   126   127    1
   127   121   122    1
   128   121   118    1
   129   122   123   ar
   130   125   119   am
   131   120   119    2
   132   119   118    1
   133   127   128    2
   134   118   117    1
