@<TRIPOS>MOLECULE
tmp/2qyoA01.pdb
 131 125 0 0 0
SMALL
GASTEIGER

@<TRIPOS>ATOM
      1  N         -3.7290    7.4020   12.1100 N.3   118  CYS118     -0.1221
      2  CA        -4.4310    6.3280   11.4070 C.3   118  CYS118      0.1808
      3  C         -4.4350    5.0640   12.2580 C.2   118  CYS118      0.2601
      4  O         -5.4650    4.4200   12.4370 O.2   118  CYS118     -0.2717
      5  CB        -3.7570    6.0140   10.0720 C.3   118  CYS118      0.0970
      6  SG        -4.0880    7.2020    8.7710 S.3   118  CYS118     -0.0800
      7  N         -3.2650    4.7110   12.7730 N.am  119  VAL119     -0.1979
      8  CA        -3.1280    3.5260   13.5980 C.3   119  VAL119      0.1595
      9  C         -3.9910    3.6390   14.8460 C.2   119  VAL119      0.2287
     10  O         -4.6380    2.6770   15.2530 O.2   119  VAL119     -0.2864
     11  CB        -1.6450    3.3170   14.0010 C.3   119  VAL119      0.0276
     12  CG1       -1.5240    2.2470   15.0660 C.3   119  VAL119      0.0022
     13  CG2       -0.8390    2.9250   12.7710 C.3   119  VAL119      0.0022
     14  N        -10.5550    1.3860   14.6750 N.3   124  LEU124     -0.1231
     15  CA        -9.5690    0.3860   14.2930 C.3   124  LEU124      0.1693
     16  C         -8.7920   -0.1730   15.4780 C.2   124  LEU124      0.2592
     17  O         -8.7320   -1.3870   15.6690 O.2   124  LEU124     -0.2718
     18  CB        -8.5930    0.9770   13.2740 C.3   124  LEU124      0.0284
     19  CG        -9.2260    1.3900   11.9450 C.3   124  LEU124      0.0019
     20  CD1       -8.1740    1.9920   11.0330 C.3   124  LEU124      0.0001
     21  CD2       -9.8600    0.1760   11.2930 C.3   124  LEU124      0.0001
     22  N         -8.2040    0.7090   16.2810 N.am  125  SER125     -0.1952
     23  CA        -7.4180    0.2670   17.4290 C.3   125  SER125      0.1924
     24  C         -8.2200   -0.5570   18.4400 C.2   125  SER125      0.2314
     25  O         -7.6940   -1.5060   19.0180 O.2   125  SER125     -0.2863
     26  CB        -6.7470    1.4740   18.1220 C.3   125  SER125      0.2116
     27  OG        -7.6960    2.4060   18.6250 O.3   125  SER125     -0.2180
     28  N         -8.5960   -4.5740   18.4990 N.3   128  PHE128     -0.1241
     29  CA        -7.6570   -5.4580   19.1740 C.3   128  PHE128      0.1605
     30  C         -8.1580   -5.9740   20.5160 C.2   128  PHE128      0.2264
     31  O         -7.5200   -6.8260   21.1320 O.2   128  PHE128     -0.2867
     32  CB        -6.3000   -4.7690   19.3120 C.3   128  PHE128      0.0534
     33  CG        -5.5320   -4.7040   18.0190 C.ar  128  PHE128     -0.0203
     34  CD1       -4.5470   -5.6460   17.7280 C.ar  128  PHE128     -0.0042
     35  CD2       -5.8190   -3.7250   17.0750 C.ar  128  PHE128     -0.0042
     36  CE1       -3.8570   -5.6090   16.5090 C.ar  128  PHE128     -0.0003
     37  CE2       -5.1370   -3.6790   15.8590 C.ar  128  PHE128     -0.0003
     38  CZ        -4.1560   -4.6200   15.5750 C.ar  128  PHE128     -0.0000
     39  N        -10.0320   -7.0620   11.3090 N.3   143  PHE143     -0.1241
     40  CA       -11.0620   -6.0760   10.9890 C.3   143  PHE143      0.1605
     41  C        -12.3080   -6.7100   10.3890 C.2   143  PHE143      0.2264
     42  O        -13.4230   -6.2980   10.6940 O.2   143  PHE143     -0.2867
     43  CB       -10.4690   -5.0230   10.0580 C.3   143  PHE143      0.0534
     44  CG        -9.2090   -4.4190   10.5970 C.ar  143  PHE143     -0.0203
     45  CD1       -9.2290   -3.7140   11.7980 C.ar  143  PHE143     -0.0042
     46  CD2       -7.9910   -4.6270    9.9600 C.ar  143  PHE143     -0.0042
     47  CE1       -8.0490   -3.2280   12.3630 C.ar  143  PHE143     -0.0003
     48  CE2       -6.8040   -4.1450   10.5190 C.ar  143  PHE143     -0.0003
     49  CZ        -6.8370   -3.4450   11.7240 C.ar  143  PHE143     -0.0000
     50  N        -10.3170   -2.9940    5.4900 N.3   151  LEU151     -0.1245
     51  CA        -9.7810   -1.6410    5.5530 C.3   151  LEU151      0.1561
     52  C        -10.1380   -0.7980    4.3340 C.2   151  LEU151      0.2260
     53  O        -10.3200    0.4170    4.4430 O.2   151  LEU151     -0.2867
     54  CB        -8.2590   -1.6910    5.7290 C.3   151  LEU151      0.0270
     55  CG        -7.7680   -2.1770    7.0970 C.3   151  LEU151      0.0019
     56  CD1       -6.2450   -2.2330    7.1180 C.3   151  LEU151      0.0001
     57  CD2       -8.2780   -1.2330    8.1790 C.3   151  LEU151      0.0001
     58  N        -10.2740    9.6190    8.0310 N.3   161  TYR161     -0.1241
     59  CA        -9.2290    8.6110    7.9850 C.3   161  TYR161      0.1605
     60  C         -8.5480    8.6120    6.6210 C.2   161  TYR161      0.2264
     61  O         -7.3180    8.5820    6.5310 O.2   161  TYR161     -0.2867
     62  CB        -9.8310    7.2320    8.2610 C.3   161  TYR161      0.0534
     63  CG        -8.8040    6.1320    8.3350 C.ar  161  TYR161     -0.0201
     64  CD1       -8.0880    5.8930    9.5080 C.ar  161  TYR161     -0.0009
     65  CD2       -8.5230    5.3470    7.2220 C.ar  161  TYR161     -0.0009
     66  CE1       -7.1140    4.8930    9.5650 C.ar  161  TYR161      0.0417
     67  CE2       -7.5550    4.3520    7.2660 C.ar  161  TYR161      0.0417
     68  CZ        -6.8550    4.1290    8.4370 C.ar  161  TYR161      0.1957
     69  OH        -5.8990    3.1400    8.4690 O.3   161  TYR161     -0.2866
     70  N         -4.7680    8.8050    5.8700 N.3   165  TYR165     -0.1241
     71  CA        -4.1600    7.7050    5.1330 C.3   165  TYR165      0.1605
     72  C         -3.3040    8.2210    3.9840 C.2   165  TYR165      0.2264
     73  O         -2.1740    7.7740    3.7850 O.2   165  TYR165     -0.2867
     74  CB        -5.2400    6.7860    4.5610 C.3   165  TYR165      0.0534
     75  CG        -4.6880    5.5440    3.8980 C.ar  165  TYR165     -0.0201
     76  CD1       -4.2460    4.4640    4.6630 C.ar  165  TYR165     -0.0009
     77  CD2       -4.5860    5.4530    2.5090 C.ar  165  TYR165     -0.0009
     78  CE1       -3.7160    3.3240    4.0640 C.ar  165  TYR165      0.0417
     79  CE2       -4.0550    4.3170    1.8970 C.ar  165  TYR165      0.0417
     80  CZ        -3.6220    3.2570    2.6820 C.ar  165  TYR165      0.1957
     81  OH        -3.0950    2.1290    2.0930 O.3   165  TYR165     -0.2866
     82  N          5.7230  -10.1120    1.9710 N.3   258  HIS258     -0.1226
     83  CA         5.1380  -10.2570    3.2980 C.3   258  HIS258      0.1752
     84  C          3.6300  -10.4870    3.2290 C.2   258  HIS258      0.2596
     85  O          3.0000  -10.8010    4.2400 O.2   258  HIS258     -0.2718
     86  CB         5.4570   -9.0380    4.1860 C.3   258  HIS258      0.0759
     87  CG         4.7910   -7.7640    3.7610 C.ar  258  HIS258      0.0818
     88  ND1        4.9580   -6.5810    4.4470 N.ar  258  HIS258     -0.2268
     89  CD2        3.9620   -7.4840    2.7290 C.ar  258  HIS258      0.1154
     90  CE1        4.2620   -5.6270    3.8570 C.ar  258  HIS258      0.1986
     91  NE2        3.6480   -6.1480    2.8120 N.ar  258  HIS258     -0.2212
     92  N          3.0540  -10.3390    2.0350 N.am  259  ASP259     -0.1974
     93  CA         1.6180  -10.5520    1.8570 C.3   259  ASP259      0.1709
     94  C          1.3010  -11.9750    1.4080 C.2   259  ASP259      0.2293
     95  O          0.1270  -12.3340    1.2740 O.2   259  ASP259     -0.2864
     96  CB         1.0370   -9.6000    0.8070 C.3   259  ASP259      0.1436
     97  CG         1.2390   -8.1470    1.1520 C.2   259  ASP259      0.3671
     98  OD1        0.9500   -7.7630    2.3050 O.co2 259  ASP259     -0.2456
     99  OD2        1.6770   -7.3870    0.2600 O.co2 259  ASP259     -0.2456
    100  N          0.9800   -7.4000   14.4970 N.3   311  THR311     -0.1203
    101  CA         0.0290   -6.4960   13.8490 C.3   311  THR311      0.1994
    102  C         -0.2650   -6.8630   12.4020 C.2   311  THR311      0.2617
    103  O         -1.4290   -6.8980   11.9940 O.2   311  THR311     -0.2717
    104  CB         0.4950   -5.0160   13.9050 C.3   311  THR311      0.1784
    105  OG1        1.7970   -4.8870   13.3260 O.3   311  THR311     -0.2211
    106  CG2        0.5280   -4.5320   15.3370 C.3   311  THR311      0.0376
    107  N          0.7680   -7.1510   11.6160 N.am  312  ILE312     -0.1979
    108  CA         0.5160   -7.5050   10.2250 C.3   312  ILE312      0.1595
    109  C         -0.2300   -8.8290   10.1090 C.2   312  ILE312      0.2287
    110  O         -0.9610   -9.0470    9.1400 O.2   312  ILE312     -0.2864
    111  CB         1.8130   -7.5840    9.3820 C.3   312  ILE312      0.0276
    112  CG1        1.4480   -7.5170    7.8940 C.3   312  ILE312      0.0022
    113  CG2        2.5570   -8.8890    9.6580 C.3   312  ILE312      0.0022
    114  CD1        2.6350   -7.6030    6.9580 C.3   312  ILE312      0.0001
    115  N         -2.6450   -9.6290   11.6690 N.3   314  CYS314     -0.1221
    116  CA        -4.0500   -9.2700   11.7850 C.3   314  CYS314      0.1808
    117  C         -4.6820   -8.9620   10.4340 C.2   314  CYS314      0.2601
    118  O         -5.9120   -8.8860   10.3160 O.2   314  CYS314     -0.2717
    119  CB        -4.2100   -8.0800   12.7300 C.3   314  CYS314      0.0970
    120  SG        -3.8220   -8.4930   14.4450 S.3   314  CYS314     -0.0800
    121  N         -3.8410   -8.7760    9.4210 N.am  315  VAL315     -0.1979
    122  CA        -4.3210   -8.5210    8.0680 C.3   315  VAL315      0.1595
    123  C         -3.7960   -9.6330    7.1570 C.2   315  VAL315      0.2287
    124  O         -3.6450   -9.4540    5.9460 O.2   315  VAL315     -0.2864
    125  CB        -3.8630   -7.1400    7.5370 C.3   315  VAL315      0.0276
    126  CG1       -4.4980   -6.0330    8.3640 C.3   315  VAL315      0.0022
    127  CG2       -2.3450   -7.0340    7.5760 C.3   315  VAL315      0.0022
    128  N         -0.8300  -10.9610    6.9350 N.3   317  GLY317     -0.1225
    129  CA         0.4960  -10.7650    6.3860 C.3   317  GLY317      0.1811
    130  C          1.4830  -11.5240    7.2530 C.2   317  GLY317      0.2280
    131  O          1.0960  -12.0940    8.2740 O.2   317  GLY317     -0.2866
@<TRIPOS>BOND
     1    99    97   ar
     2    96    97    1
     3    96    93    1
     4    97    98   ar
     5    95    94    2
     6    94    93    1
     7    93    92    1
     8    79    77   ar
     9    79    80   ar
    10    82    83    1
    11    92    84   am
    12    81    80    1
    13    77    75   ar
    14    80    78   ar
    15    89    91   ar
    16    89    87   ar
    17    91    90   ar
    18    84    83    1
    19    84    85    2
    20    83    86    1
    21    87    86    1
    22    87    88   ar
    23    73    72    2
    24    90    88   ar
    25    75    74    1
    26    75    76   ar
    27    72    71    1
    28    78    76   ar
    29    52    53    2
    30    52    51    1
    31    74    71    1
    32    71    70    1
    33    50    51    1
    34    51    54    1
    35    54    55    1
    36   124   123    2
    37   129   128    1
    38   129   130    1
    39    61    60    2
    40    60    59    1
    41   114   112    1
    42    55    56    1
    43    55    57    1
    44   123   122    1
    45    65    67   ar
    46    65    63   ar
    47   130   131    2
    48    67    68   ar
    49   125   127    1
    50   125   122    1
    51   125   126    1
    52   112   111    1
    53    59    58    1
    54    59    62    1
    55   122   121    1
    56    62    63    1
    57    63    64   ar
    58    68    69    1
    59    68    66   ar
    60     6     5    1
    61   110   109    2
    62   111   113    1
    63   111   108    1
    64   121   117   am
    65    64    66   ar
    66    46    48   ar
    67    46    44   ar
    68    43    44    1
    69    43    40    1
    70     5     2    1
    71   109   108    1
    72   108   107    1
    73   118   117    2
    74    41    42    2
    75    41    40    1
    76   117   116    1
    77    48    49   ar
    78    44    45   ar
    79    40    39    1
    80    20    19    1
    81    21    19    1
    82     2     1    1
    83     2     3    1
    84   107   102   am
    85   115   116    1
    86    49    47   ar
    87   116   119    1
    88    45    47   ar
    89    19    18    1
    90   103   102    2
    91     3     4    2
    92     3     7   am
    93   102   101    1
    94   119   120    1
    95    13    11    1
    96     7     8    1
    97    18    15    1
    98   105   104    1
    99     8    11    1
   100     8     9    1
   101   101   104    1
   102   101   100    1
   103   104   106    1
   104    11    12    1
   105    15    14    1
   106    15    16    1
   107     9    10    2
   108    16    17    2
   109    16    22   am
   110    38    37   ar
   111    38    36   ar
   112    37    35   ar
   113    22    23    1
   114    36    34   ar
   115    35    33   ar
   116    23    26    1
   117    23    24    1
   118    34    33   ar
   119    33    32    1
   120    26    27    1
   121    24    25    2
   122    28    29    1
   123    29    32    1
   124    29    30    1
   125    30    31    2
