@<TRIPOS>MOLECULE
tmp/2qyuA00.pdb
 129 126 0 0 0
SMALL
GASTEIGER

@<TRIPOS>ATOM
      1  N        -12.8490  -30.1920   70.1490 N.3    92  SER92      -0.1202
      2  CA       -11.4670  -29.8710   69.8370 C.3    92  SER92       0.2020
      3  C        -10.7550  -31.1160   69.2990 C.2    92  SER92       0.2618
      4  O        -10.8620  -32.2000   69.8760 O.2    92  SER92      -0.2717
      5  CB       -10.7700  -29.3440   71.0950 C.3    92  SER92       0.2103
      6  OG        -9.3880  -29.1230   70.8810 O.3    92  SER92      -0.2182
      7  N        -10.0630  -30.9540   68.1730 N.am   93  ASP93      -0.1973
      8  CA        -9.2610  -32.0260   67.5450 C.3    93  ASP93       0.1709
      9  C        -10.0200  -33.3210   67.2410 C.2    93  ASP93       0.2293
     10  O         -9.4560  -34.4160   67.2810 O.2    93  ASP93      -0.2864
     11  CB        -8.0060  -32.2880   68.3730 C.3    93  ASP93       0.1436
     12  CG        -7.2000  -31.0330   68.5700 C.2    93  ASP93       0.3671
     13  OD1       -6.7300  -30.4790   67.5460 O.co2  93  ASP93      -0.2456
     14  OD2       -7.0790  -30.5780   69.7300 O.co2  93  ASP93      -0.2456
     15  N        -12.5920  -26.3740   66.8680 N.3   112  GLN112     -0.1231
     16  CA       -11.3520  -26.3600   66.1160 C.3   112  GLN112      0.1698
     17  C        -10.8950  -27.8050   66.0010 C.2   112  GLN112      0.2592
     18  O        -10.1640  -28.3240   66.8640 O.2   112  GLN112     -0.2718
     19  CB       -10.2990  -25.4430   66.7540 C.3   112  GLN112      0.0381
     20  CG       -10.6190  -23.9510   66.5680 C.3   112  GLN112      0.0905
     21  CD        -9.5420  -23.0120   67.1100 C.2   112  GLN112      0.2608
     22  OE1       -8.8890  -23.3010   68.1140 O.2   112  GLN112     -0.2717
     23  NE2       -9.3670  -21.8690   66.4530 N.am  112  GLN112     -0.0878
     24  N        -11.3510  -28.4430   64.9210 N.am  113  TYR113     -0.1976
     25  CA       -11.2460  -29.8820   64.7470 C.3   113  TYR113      0.1639
     26  C         -9.8800  -30.2920   64.1850 C.2   113  TYR113      0.2290
     27  O         -9.0690  -29.4370   63.8080 O.2   113  TYR113     -0.2864
     28  CB       -12.4280  -30.4100   63.9070 C.3   113  TYR113      0.0560
     29  CG       -12.5180  -29.8980   62.4790 C.ar  113  TYR113     -0.0198
     30  CD1      -11.6350  -30.3640   61.5010 C.ar  113  TYR113     -0.0009
     31  CD2      -13.4970  -28.9800   62.0930 C.ar  113  TYR113     -0.0009
     32  CE1      -11.7090  -29.9260   60.1990 C.ar  113  TYR113      0.0417
     33  CE2      -13.5780  -28.5310   60.7670 C.ar  113  TYR113      0.0417
     34  CZ       -12.6750  -29.0110   59.8300 C.ar  113  TYR113      0.1957
     35  OH       -12.7040  -28.6090   58.5040 O.3   113  TYR113     -0.2866
     36  N        -13.1810  -24.2000   63.2690 N.3   134  ARG134     -0.1231
     37  CA       -12.0900  -24.1930   62.2970 C.3   134  ARG134      0.1694
     38  C        -12.6170  -23.5700   60.9960 C.2   134  ARG134      0.2592
     39  O        -13.7810  -23.7620   60.6440 O.2   134  ARG134     -0.2718
     40  CB       -11.5670  -25.6100   62.0590 C.3   134  ARG134      0.0321
     41  CG       -10.4440  -25.6830   61.0370 C.3   134  ARG134      0.0489
     42  CD        -9.6740  -26.9930   61.1010 C.3   134  ARG134      0.2205
     43  NE        -8.7800  -27.1410   59.9490 N.pl3 134  ARG134     -0.0865
     44  CZ        -7.6070  -26.5130   59.8030 C.cat 134  ARG134      0.5346
     45  NH1       -7.1570  -25.6660   60.7340 N.pl3 134  ARG134      0.1354
     46  NH2       -6.8750  -26.7330   58.7120 N.pl3 134  ARG134      0.1354
     47  N        -11.7620  -22.8220   60.2970 N.am  135  HIS135     -0.1976
     48  CA       -12.1820  -21.9980   59.1600 C.3   135  HIS135      0.1656
     49  C        -12.3960  -22.7870   57.8730 C.2   135  HIS135      0.2291
     50  O        -12.2810  -22.2330   56.7630 O.2   135  HIS135     -0.2864
     51  CB       -11.1340  -20.9280   58.9140 C.3   135  HIS135      0.0771
     52  CG        -9.7520  -21.4770   58.7520 C.ar  135  HIS135      0.0820
     53  ND1       -8.9910  -21.8960   59.8210 N.ar  135  HIS135     -0.2267
     54  CD2       -9.0020  -21.7010   57.6480 C.ar  135  HIS135      0.1154
     55  CE1       -7.8270  -22.3450   59.3880 C.ar  135  HIS135      0.1986
     56  NE2       -7.8070  -22.2390   58.0730 N.ar  135  HIS135     -0.2212
     57  N         -8.5500  -19.0510   74.7640 N.3   155  VAL155     -0.1231
     58  CA        -7.7780  -19.9600   73.9240 C.3   155  VAL155      0.1692
     59  C         -6.2980  -19.9110   74.3300 C.2   155  VAL155      0.2593
     60  O         -5.8600  -18.9450   74.9450 O.2   155  VAL155     -0.2718
     61  CB        -7.9930  -19.5900   72.4270 C.3   155  VAL155      0.0266
     62  CG1       -6.9190  -20.1530   71.5650 C.3   155  VAL155      0.0020
     63  CG2       -9.3470  -20.0860   71.9460 C.3   155  VAL155      0.0020
     64  N         -5.5420  -20.9560   73.9940 N.am  156  SER156     -0.1938
     65  CA        -4.1290  -21.0720   74.3810 C.3   156  SER156      0.2055
     66  C         -3.2010  -20.1220   73.6170 C.2   156  SER156      0.2644
     67  O         -2.2600  -19.5680   74.1880 O.2   156  SER156     -0.2714
     68  CB        -3.6440  -22.5120   74.1870 C.3   156  SER156      0.2130
     69  OG        -2.3410  -22.6950   74.7180 O.3   156  SER156     -0.2179
     70  N         -3.4590  -19.9560   72.3250 N.am  157  GLY157     -0.1939
     71  CA        -2.6140  -19.1330   71.4640 C.3   157  GLY157      0.2014
     72  C         -3.3450  -18.7320   70.1940 C.2   157  GLY157      0.2639
     73  O         -4.5500  -18.9160   70.0780 O.2   157  GLY157     -0.2714
     74  N         -2.6050  -18.1770   69.2410 N.am  158  GLY158     -0.1939
     75  CA        -3.1610  -17.8050   67.9500 C.3   158  GLY158      0.2014
     76  C         -3.5380  -16.3390   67.8640 C.2   158  GLY158      0.2639
     77  O         -3.2170  -15.5420   68.7530 O.2   158  GLY158     -0.2714
     78  N         -4.2440  -15.9880   66.7950 N.am  159  GLY159     -0.1954
     79  CA        -4.5470  -14.5900   66.5190 C.3   159  GLY159      0.1869
     80  C         -5.8770  -14.1250   67.0600 C.2   159  GLY159      0.2309
     81  O         -6.4890  -14.7970   67.8920 O.2   159  GLY159     -0.2863
     82  N        -11.0800  -17.8450   64.2940 N.3   170  GLN170     -0.1231
     83  CA        -9.7810  -17.3130   64.7270 C.3   170  GLN170      0.1698
     84  C         -8.8530  -17.0510   63.5420 C.2   170  GLN170      0.2592
     85  O         -8.6630  -17.9050   62.6800 O.2   170  GLN170     -0.2718
     86  CB        -9.1050  -18.2340   65.7460 C.3   170  GLN170      0.0381
     87  CG        -7.8810  -17.6100   66.4300 C.3   170  GLN170      0.0905
     88  CD        -7.3260  -18.4570   67.5520 C.2   170  GLN170      0.2608
     89  OE1       -7.6120  -19.6480   67.6510 O.2   170  GLN170     -0.2717
     90  NE2       -6.5090  -17.8440   68.4020 N.am  170  GLN170     -0.0878
     91  N         -8.2950  -15.8520   63.5080 N.am  171  MET171     -0.1966
     92  CA        -7.2920  -15.4750   62.5220 C.3   171  MET171      0.1721
     93  C         -5.9340  -15.9970   62.9690 C.2   171  MET171      0.2458
     94  O         -5.7300  -16.2450   64.1590 O.2   171  MET171     -0.2730
     95  CB        -7.1980  -13.9460   62.4360 C.3   171  MET171      0.0427
     96  CG        -8.4390  -13.2220   61.9510 C.3   171  MET171      0.0599
     97  SD        -8.9290  -13.7470   60.3120 S.3   171  MET171     -0.1393
     98  CE       -10.1400  -15.0100   60.7040 C.3   171  MET171      0.0692
     99  N         -4.9800  -16.1220   62.0290 N.am  172  PRO172     -0.2716
    100  CA        -3.6030  -16.3830   62.4300 C.3   172  PRO172      0.1536
    101  C         -3.0560  -15.1300   63.1100 C.2   172  PRO172      0.2598
    102  O         -3.5990  -14.0290   62.9290 O.2   172  PRO172     -0.2715
    103  CB        -2.8850  -16.5840   61.0990 C.3   172  PRO172      0.0310
    104  CG        -3.6840  -15.7830   60.1290 C.3   172  PRO172      0.0237
    105  CD        -5.0960  -15.9700   60.5590 C.3   172  PRO172      0.0939
    106  N         -1.9920  -15.2930   63.8790 N.am  173  LEU173     -0.1978
    107  CA        -1.3540  -14.1630   64.5250 C.3   173  LEU173      0.1596
    108  C         -0.5720  -13.3440   63.5010 C.2   173  LEU173      0.2287
    109  O         -0.7330  -12.1220   63.4170 O.2   173  LEU173     -0.2864
    110  CB        -0.4490  -14.6460   65.6530 C.3   173  LEU173      0.0297
    111  CG         0.1990  -13.5820   66.5340 C.3   173  LEU173      0.0022
    112  CD1       -0.8410  -12.6460   67.2040 C.3   173  LEU173      0.0001
    113  CD2        1.0660  -14.2870   67.5730 C.3   173  LEU173      0.0001
    114  N          0.5170  -19.7910   57.0610 N.3   179  ALA179     -0.1245
    115  CA        -0.8360  -19.3440   57.4070 C.3   179  ALA179      0.1562
    116  C         -1.6070  -18.9190   56.1610 C.2   179  ALA179      0.2260
    117  O         -2.8020  -19.1890   56.0260 O.2   179  ALA179     -0.2867
    118  CB        -0.7650  -18.1890   58.4040 C.3   179  ALA179      0.0290
    119  N         -5.0260  -20.8000   55.2850 N.3   183  PHE183     -0.1241
    120  CA        -6.2640  -20.0170   55.3680 C.3   183  PHE183      0.1605
    121  C         -6.8690  -19.6750   54.0150 C.2   183  PHE183      0.2264
    122  O         -8.0960  -19.6660   53.8780 O.2   183  PHE183     -0.2867
    123  CB        -6.0560  -18.7240   56.1730 C.3   183  PHE183      0.0534
    124  CG        -6.1700  -18.9140   57.6680 C.ar  183  PHE183     -0.0203
    125  CD1       -5.1350  -19.5120   58.3860 C.ar  183  PHE183     -0.0042
    126  CD2       -7.3170  -18.5010   58.3540 C.ar  183  PHE183     -0.0042
    127  CE1       -5.2330  -19.7020   59.7790 C.ar  183  PHE183     -0.0003
    128  CE2       -7.4210  -18.6830   59.7350 C.ar  183  PHE183     -0.0003
    129  CZ        -6.3730  -19.2870   60.4510 C.ar  183  PHE183     -0.0000
@<TRIPOS>BOND
     1   122   121    2
     2   121   120    1
     3   119   120    1
     4   120   123    1
     5   117   116    2
     6   116   115    1
     7   123   124    1
     8    50    49    2
     9   114   115    1
    10   115   118    1
    11    54    56   ar
    12    54    52   ar
    13   124   126   ar
    14   124   125   ar
    15    49    48    1
    16    56    55   ar
    17   126   128   ar
    18   125   127   ar
    19    35    34    1
    20    46    44    1
    21    52    51    1
    22    52    53   ar
    23    51    48    1
    24    48    47    1
    25    55    53   ar
    26   128   129   ar
    27   127   129   ar
    28    44    43    2
    29    44    45    1
    30    34    32   ar
    31    34    33   ar
    32    43    42    1
    33   104   105    1
    34   104   103    1
    35    32    30   ar
    36    47    38   am
    37    97    98    1
    38    97    96    1
    39   105    99    1
    40    39    38    2
    41    33    31   ar
    42    38    37    1
    43    41    42    1
    44    41    40    1
    45   103   100    1
    46    30    29   ar
    47    96    95    1
    48    99   100    1
    49    99    93   am
    50    40    37    1
    51    31    29   ar
    52    37    36    1
    53   100   101    1
    54    95    92    1
    55    29    28    1
    56    92    93    1
    57    92    91    1
    58    85    84    2
    59   102   101    2
    60    93    94    2
    61   101   106   am
    62   109   108    2
    63   108   107    1
    64    91    84   am
    65    84    83    1
    66    27    26    2
    67   106   107    1
    68    28    25    1
    69    26    25    1
    70    82    83    1
    71   107   110    1
    72    83    86    1
    73    25    24    1
    74    24    17   am
    75   110   111    1
    76    86    87    1
    77    17    16    1
    78    17    18    2
    79    16    19    1
    80    16    15    1
    81    87    88    1
    82    23    21   am
    83    79    78    1
    84    79    80    1
    85   111   112    1
    86   111   113    1
    87    20    19    1
    88    20    21    1
    89    78    76   am
    90    80    81    2
    91    21    22    2
    92     9    10    2
    93     9     8    1
    94     8     7    1
    95     8    11    1
    96    13    12   ar
    97    88    89    2
    98    88    90   am
    99    76    75    1
   100    76    77    2
   101    75    74    1
   102     7     3   am
   103    11    12    1
   104    12    14   ar
   105    74    72   am
   106     3     2    1
   107     3     4    2
   108     2     1    1
   109     2     5    1
   110    73    72    2
   111    72    71    1
   112     6     5    1
   113    71    70    1
   114    62    61    1
   115    63    61    1
   116    70    66   am
   117    61    58    1
   118    66    67    2
   119    66    65    1
   120    58    59    1
   121    58    57    1
   122    64    59   am
   123    64    65    1
   124    68    65    1
   125    68    69    1
   126    59    60    2
