@<TRIPOS>MOLECULE
tmp/2qz2A00.pdb
 186 181 0 0 0
SMALL
GASTEIGER

@<TRIPOS>ATOM
      1  N        -19.4840   23.2200   13.5270 N.3     6  TYR6       -0.1241
      2  CA       -18.0860   22.7920   13.5160 C.3     6  TYR6        0.1605
      3  C        -17.1760   23.7800   12.7950 C.2     6  TYR6        0.2264
      4  O        -17.4800   24.2230   11.6850 O.2     6  TYR6       -0.2867
      5  CB       -17.9380   21.3980   12.8910 C.3     6  TYR6        0.0534
      6  CG       -16.5400   20.8310   13.0130 C.ar    6  TYR6       -0.0201
      7  CD1      -16.1240   20.1990   14.1850 C.ar    6  TYR6       -0.0009
      8  CD2      -15.6280   20.9380   11.9620 C.ar    6  TYR6       -0.0009
      9  CE1      -14.8390   19.6860   14.3090 C.ar    6  TYR6        0.0417
     10  CE2      -14.3380   20.4280   12.0750 C.ar    6  TYR6        0.0417
     11  CZ       -13.9510   19.8020   13.2510 C.ar    6  TYR6        0.1957
     12  OH       -12.6780   19.2940   13.3730 O.3     6  TYR6       -0.2866
     13  N        -13.4250   24.1810   11.2220 N.3     8  GLN8       -0.1245
     14  CA       -12.1780   23.5680   10.7660 C.3     8  GLN8        0.1566
     15  C        -11.0270   24.5570   10.9010 C.2     8  GLN8        0.2260
     16  O        -11.0700   25.6490   10.3320 O.2     8  GLN8       -0.2867
     17  CB       -12.3080   23.0700    9.3180 C.3     8  GLN8        0.0367
     18  CG       -10.9910   22.6550    8.6410 C.3     8  GLN8        0.0905
     19  CD       -10.2710   21.4920    9.3260 C.2     8  GLN8        0.2608
     20  OE1       -9.0610   21.3330    9.1750 O.2     8  GLN8       -0.2717
     21  NE2      -11.0090   20.6770   10.0700 N.am    8  GLN8       -0.0878
     22  N         -7.0510   23.7640   10.8840 N.3    10  TYR10      -0.1241
     23  CA        -5.7410   23.1290   10.8470 C.3    10  TYR10       0.1605
     24  C         -4.6760   24.1300   10.4110 C.2    10  TYR10       0.2264
     25  O         -4.6250   24.5240    9.2400 O.2    10  TYR10      -0.2867
     26  CB        -5.7360   21.8860    9.9460 C.3    10  TYR10       0.0534
     27  CG        -4.3640   21.2600    9.7910 C.ar   10  TYR10      -0.0201
     28  CD1       -3.7650   20.5760   10.8480 C.ar   10  TYR10      -0.0009
     29  CD2       -3.6630   21.3600    8.5900 C.ar   10  TYR10      -0.0009
     30  CE1       -2.5030   20.0060   10.7140 C.ar   10  TYR10       0.0417
     31  CE2       -2.4020   20.7930    8.4430 C.ar   10  TYR10       0.0417
     32  CZ        -1.8270   20.1180    9.5080 C.ar   10  TYR10       0.1957
     33  OH        -0.5780   19.5560    9.3690 O.3    10  TYR10      -0.2866
     34  N          1.3790   23.9610    5.3790 N.3    37  ASP37      -0.1239
     35  CA         0.0520   23.5500    4.9200 C.3    37  ASP37       0.1674
     36  C         -1.0370   23.9940    5.9030 C.2    37  ASP37       0.2266
     37  O         -0.9080   23.7910    7.1130 O.2    37  ASP37      -0.2867
     38  CB         0.0280   22.0220    4.7440 C.3    37  ASP37       0.1410
     39  CG        -1.2860   21.5060    4.1620 C.2    37  ASP37       0.3668
     40  OD1       -1.2810   21.0350    3.0010 O.co2  37  ASP37      -0.2456
     41  OD2       -2.3240   21.5580    4.8610 O.co2  37  ASP37      -0.2456
     42  N         -5.5920   24.2020    6.3770 N.3    39  VAL39      -0.1245
     43  CA        -6.9690   23.9560    5.9330 C.3    39  VAL39       0.1561
     44  C         -7.9370   24.5700    6.9440 C.2    39  VAL39       0.2260
     45  O         -7.9610   24.1680    8.1090 O.2    39  VAL39      -0.2867
     46  CB        -7.2950   22.4390    5.7820 C.3    39  VAL39       0.0252
     47  CG1       -8.7200   22.2480    5.2760 C.3    39  VAL39       0.0019
     48  CG2       -6.3190   21.7430    4.8420 C.3    39  VAL39       0.0019
     49  N        -14.8560   19.8320    1.9800 N.3    70  TYR70      -0.1241
     50  CA       -13.8240   19.0130    2.6020 C.3    70  TYR70       0.1605
     51  C        -14.3830   18.2460    3.7950 C.2    70  TYR70       0.2264
     52  O        -15.2130   18.7680    4.5430 O.2    70  TYR70      -0.2867
     53  CB       -12.6530   19.9090    3.0220 C.3    70  TYR70       0.0534
     54  CG       -11.5280   19.2230    3.7710 C.ar   70  TYR70      -0.0201
     55  CD1      -10.7000   18.2940    3.1400 C.ar   70  TYR70      -0.0009
     56  CD2      -11.2730   19.5290    5.1060 C.ar   70  TYR70      -0.0009
     57  CE1       -9.6600   17.6740    3.8280 C.ar   70  TYR70       0.0417
     58  CE2      -10.2340   18.9190    5.8010 C.ar   70  TYR70       0.0417
     59  CZ        -9.4330   17.9930    5.1580 C.ar   70  TYR70       0.1957
     60  OH        -8.4090   17.3870    5.8500 O.3    70  TYR70      -0.2866
     61  N        -14.1480   13.9830    6.0870 N.3    72  TRP72      -0.1241
     62  CA       -13.5340   12.6850    6.3670 C.3    72  TRP72       0.1605
     63  C        -14.5530   11.5550    6.5410 C.2    72  TRP72       0.2264
     64  O        -15.7030   11.7840    6.9380 O.2    72  TRP72      -0.2867
     65  CB       -12.6770   12.7650    7.6330 C.3    72  TRP72       0.0550
     66  CG       -11.4160   13.5650    7.4990 C.ar   72  TRP72       0.0003
     67  CD1      -11.2990   14.9240    7.5330 C.ar   72  TRP72       0.0946
     68  CD2      -10.0870   13.0520    7.3360 C.ar   72  TRP72       0.0152
     69  NE1       -9.9820   15.2920    7.3890 N.ar   72  TRP72      -0.2442
     70  CE2       -9.2170   14.1630    7.2680 C.ar   72  TRP72       0.0810
     71  CE3       -9.5480   11.7620    7.2350 C.ar   72  TRP72       0.0012
     72  CZ2       -7.8350   14.0230    7.1050 C.ar   72  TRP72       0.0191
     73  CZ3       -8.1740   11.6230    7.0720 C.ar   72  TRP72       0.0001
     74  CH2       -7.3340   12.7490    7.0070 C.ar   72  TRP72       0.0015
     75  N        -10.0950   10.7250    3.2250 N.3    79  GLU79      -0.1245
     76  CA       -10.1470   12.1800    3.1800 C.3    79  GLU79       0.1567
     77  C        -10.6390   12.5960    1.7980 C.2    79  GLU79       0.2260
     78  O        -10.1840   12.0540    0.7900 O.2    79  GLU79      -0.2867
     79  CB        -8.7570   12.7570    3.4490 C.3    79  GLU79       0.0388
     80  CG        -8.7050   14.2710    3.5380 C.3    79  GLU79       0.1160
     81  CD        -7.2880   14.8140    3.5440 C.2    79  GLU79       0.3649
     82  OE1       -6.4250   14.2520    2.8360 O.co2  79  GLU79      -0.2457
     83  OE2       -7.0400   15.8110    4.2530 O.co2  79  GLU79      -0.2457
     84  N        -11.9660   15.8140   -1.0490 N.3    81  TYR81      -0.1241
     85  CA       -12.0800   17.1890   -1.5160 C.3    81  TYR81       0.1605
     86  C        -12.9800   17.2030   -2.7430 C.2    81  TYR81       0.2264
     87  O        -12.6880   16.5240   -3.7300 O.2    81  TYR81      -0.2867
     88  CB       -10.7140   17.7400   -1.9350 C.3    81  TYR81       0.0534
     89  CG        -9.6920   17.9680   -0.8410 C.ar   81  TYR81      -0.0201
     90  CD1       -8.9060   16.9180   -0.3610 C.ar   81  TYR81      -0.0009
     91  CD2       -9.4670   19.2480   -0.3280 C.ar   81  TYR81      -0.0009
     92  CE1       -7.9420   17.1280    0.6230 C.ar   81  TYR81       0.0417
     93  CE2       -8.5060   19.4700    0.6580 C.ar   81  TYR81       0.0417
     94  CZ        -7.7490   18.4030    1.1260 C.ar   81  TYR81       0.1957
     95  OH        -6.7990   18.6080    2.1010 O.3    81  TYR81      -0.2866
     96  N         -2.1730    8.0750    1.1490 N.3   115  ARG115     -0.1245
     97  CA        -1.1960    8.7180    2.0170 C.3   115  ARG115      0.1563
     98  C         -0.7990    7.7410    3.1210 C.2   115  ARG115      0.2260
     99  O         -1.6600    7.1060    3.7360 O.2   115  ARG115     -0.2867
    100  CB        -1.7730    9.9980    2.6270 C.3   115  ARG115      0.0307
    101  CG        -2.3480   11.0050    1.6370 C.3   115  ARG115      0.0489
    102  CD        -1.3120   11.9890    1.0930 C.3   115  ARG115      0.2205
    103  NE        -0.6800   11.5040   -0.1360 N.pl3 115  ARG115     -0.0865
    104  CZ         0.6290   11.5260   -0.3830 C.cat 115  ARG115      0.5346
    105  NH1        1.4800   12.0280    0.5040 N.pl3 115  ARG115      0.1354
    106  NH2        1.0870   11.0540   -1.5350 N.pl3 115  ARG115      0.1354
    107  N          0.4860    9.9920    7.3860 N.3   118  GLU118     -0.1231
    108  CA         0.3590   11.4360    7.2340 C.3   118  GLU118      0.1684
    109  C         -0.6350   11.9750    8.2630 C.2   118  GLU118      0.2434
    110  O         -1.5160   11.2310    8.7070 O.2   118  GLU118     -0.2733
    111  CB        -0.1060   11.7820    5.8170 C.3   118  GLU118      0.0402
    112  CG         0.6760   11.0910    4.7020 C.3   118  GLU118      0.1161
    113  CD         1.9590   11.8070    4.3010 C.2   118  GLU118      0.3649
    114  OE1        2.4270   12.7060    5.0380 O.co2 118  GLU118     -0.2457
    115  OE2        2.5040   11.4600    3.2310 O.co2 118  GLU118     -0.2457
    116  N         -0.4900   13.2600    8.6620 N.am  119  PRO119     -0.2718
    117  CA        -1.4640   13.9200    9.5360 C.3   119  PRO119      0.1535
    118  C         -2.9120   13.5930    9.1600 C.2   119  PRO119      0.2599
    119  O         -3.2920   13.6990    7.9910 O.2   119  PRO119     -0.2715
    120  CB        -1.1760   15.4040    9.3060 C.3   119  PRO119      0.0310
    121  CG         0.2840   15.4460    9.0460 C.3   119  PRO119      0.0237
    122  CD         0.6310   14.1610    8.3290 C.3   119  PRO119      0.0939
    123  N         -3.6970   13.1780   10.1510 N.am  120  SER120     -0.1936
    124  CA        -5.0830   12.7750    9.9330 C.3   120  SER120      0.2055
    125  C         -5.9540   13.1690   11.1170 C.2   120  SER120      0.2642
    126  O         -5.4960   13.8530   12.0320 O.2   120  SER120     -0.2714
    127  CB        -5.1680   11.2640    9.6960 C.3   120  SER120      0.2130
    128  OG        -4.9030   10.5450   10.8890 O.3   120  SER120     -0.2179
    129  N         -7.2110   12.7350   11.0970 N.am  121  ILE121     -0.1977
    130  CA        -8.1210   12.9800   12.2160 C.3   121  ILE121      0.1596
    131  C         -7.8190   12.0670   13.4040 C.2   121  ILE121      0.2287
    132  O         -8.2850   12.3150   14.5150 O.2   121  ILE121     -0.2864
    133  CB        -9.6170   12.8850   11.8050 C.3   121  ILE121      0.0276
    134  CG1       -9.8860   11.6250   10.9740 C.3   121  ILE121      0.0022
    135  CG2      -10.0320   14.1370   11.0470 C.3   121  ILE121      0.0022
    136  CD1      -11.3590   11.2810   10.8330 C.3   121  ILE121      0.0001
    137  N         -4.6070   11.4800   14.4650 N.3   123  GLY123     -0.1225
    138  CA        -3.2010   11.7770   14.7180 C.3   123  GLY123      0.1811
    139  C         -2.3580   11.6540   13.4660 C.2   123  GLY123      0.2280
    140  O         -2.1140   12.6410   12.7660 O.2   123  GLY123     -0.2866
    141  N         -4.4110    6.4970    5.0770 N.3   127  PHE127     -0.1241
    142  CA        -5.7610    6.7530    4.5800 C.3   127  PHE127      0.1605
    143  C         -5.7970    6.9690    3.0670 C.2   127  PHE127      0.2264
    144  O         -4.7880    7.3230    2.4530 O.2   127  PHE127     -0.2867
    145  CB        -6.3820    7.9540    5.3070 C.3   127  PHE127      0.0534
    146  CG        -5.5760    9.2260    5.1980 C.ar  127  PHE127     -0.0203
    147  CD1       -4.5410    9.4910    6.0910 C.ar  127  PHE127     -0.0042
    148  CD2       -5.8630   10.1650    4.2110 C.ar  127  PHE127     -0.0042
    149  CE1       -3.7970   10.6650    5.9950 C.ar  127  PHE127     -0.0003
    150  CE2       -5.1240   11.3430    4.1080 C.ar  127  PHE127     -0.0003
    151  CZ        -4.0920   11.5930    5.0030 C.ar  127  PHE127     -0.0000
    152  N         -7.2660    9.0860   -0.1660 N.3   129  GLN129     -0.1245
    153  CA        -7.7760   10.4060   -0.5380 C.3   129  GLN129      0.1566
    154  C         -8.6610   10.3140   -1.7710 C.2   129  GLN129      0.2260
    155  O         -8.3210    9.6220   -2.7270 O.2   129  GLN129     -0.2867
    156  CB        -6.6250   11.3690   -0.8290 C.3   129  GLN129      0.0367
    157  CG        -5.9650   11.9720    0.3920 C.3   129  GLN129      0.0905
    158  CD        -4.7990   12.8740    0.0320 C.2   129  GLN129      0.2608
    159  OE1       -4.0260   12.5730   -0.8770 O.2   129  GLN129     -0.2717
    160  NE2       -4.6600   13.9790    0.7530 N.am  129  GLN129     -0.0878
    161  N        -16.3820   14.9880   10.2080 N.3   164  TYR164     -0.1241
    162  CA       -16.8130   16.3530    9.8980 C.3   164  TYR164      0.1605
    163  C        -16.8990   16.6370    8.3970 C.2   164  TYR164      0.2264
    164  O        -16.3190   15.9180    7.5800 O.2   164  TYR164     -0.2867
    165  CB       -15.9510   17.3990   10.6210 C.3   164  TYR164      0.0534
    166  CG       -14.5230   17.5230   10.1270 C.ar  164  TYR164     -0.0201
    167  CD1      -14.2160   18.2920    9.0020 C.ar  164  TYR164     -0.0009
    168  CD2      -13.4750   16.8960   10.8020 C.ar  164  TYR164     -0.0009
    169  CE1      -12.9100   18.4160    8.5500 C.ar  164  TYR164      0.0417
    170  CE2      -12.1630   17.0150   10.3610 C.ar  164  TYR164      0.0417
    171  CZ       -11.8880   17.7760    9.2340 C.ar  164  TYR164      0.1957
    172  OH       -10.5920   17.9020    8.7910 O.3   164  TYR164     -0.2866
    173  N         -0.9390   25.5400    0.6330 N.3   172  TRP172     -0.1241
    174  CA         0.3190   25.0330    1.1880 C.3   172  TRP172      0.1605
    175  C          1.5790   25.6410    0.5630 C.2   172  TRP172      0.2264
    176  O          2.6960   25.3110    0.9680 O.2   172  TRP172     -0.2867
    177  CB         0.3660   23.5010    1.1370 C.3   172  TRP172      0.0550
    178  CG         0.2550   22.9290   -0.2360 C.ar  172  TRP172      0.0003
    179  CD1        1.2810   22.5630   -1.0580 C.ar  172  TRP172      0.0946
    180  CD2       -0.9540   22.6490   -0.9520 C.ar  172  TRP172      0.0152
    181  NE1        0.7880   22.0720   -2.2430 N.ar  172  TRP172     -0.2442
    182  CE2       -0.5810   22.1120   -2.2040 C.ar  172  TRP172      0.0810
    183  CE3       -2.3170   22.7980   -0.6550 C.ar  172  TRP172      0.0012
    184  CZ2       -1.5210   21.7280   -3.1630 C.ar  172  TRP172      0.0191
    185  CZ3       -3.2510   22.4160   -1.6100 C.ar  172  TRP172      0.0001
    186  CH2       -2.8460   21.8880   -2.8500 C.ar  172  TRP172      0.0015
@<TRIPOS>BOND
     1    87    86    2
     2   184   186   ar
     3   184   182   ar
     4   186   185   ar
     5    86    85    1
     6   155   154    2
     7   181   182   ar
     8   181   179   ar
     9   182   180   ar
    10    88    85    1
    11    88    89    1
    12   154   153    1
    13   185   183   ar
    14   106   104    1
    15    85    84    1
    16   179   178   ar
    17   180   183   ar
    18   180   178   ar
    19   159   158    2
    20    89    90   ar
    21    89    91   ar
    22   156   153    1
    23   156   157    1
    24   153   152    1
    25   104   103    2
    26   104   105    1
    27    90    92   ar
    28    91    93   ar
    29   178   177    1
    30   103   102    1
    31   158   157    1
    32   158   160   am
    33   175   176    2
    34   175   174    1
    35    92    94   ar
    36   173   174    1
    37    93    94   ar
    38    78    77    2
    39   102   101    1
    40    94    95    1
    41   177   174    1
    42    96    97    1
    43   101   100    1
    44    77    76    1
    45    49    50    1
    46    97   100    1
    47    97    98    1
    48   144   143    2
    49    50    53    1
    50    50    51    1
    51    82    81   ar
    52    40    39   ar
    53    53    54    1
    54   143   142    1
    55    98    99    2
    56    55    54   ar
    57    55    57   ar
    58    76    75    1
    59    76    79    1
    60   115   113   ar
    61    79    80    1
    62    80    81    1
    63    81    83   ar
    64    54    56   ar
    65    51    52    2
    66    57    59   ar
    67   150   148   ar
    68   150   151   ar
    69    39    38    1
    70    39    41   ar
    71   148   146   ar
    72   113   112    1
    73   113   114   ar
    74   142   141    1
    75   142   145    1
    76   112   111    1
    77    38    35    1
    78    48    46    1
    79    35    34    1
    80    35    36    1
    81   151   149   ar
    82    56    58   ar
    83    59    58   ar
    84    59    60    1
    85   146   145    1
    86   146   147   ar
    87    47    46    1
    88    46    43    1
    89   111   108    1
    90    36    37    2
    91    43    42    1
    92    43    44    1
    93   149   147   ar
    94    61    62    1
    95    62    63    1
    96    62    65    1
    97    63    64    2
    98    44    45    2
    99    74    73   ar
   100    74    72   ar
   101    73    71   ar
   102    72    70   ar
   103   108   107    1
   104   108   109    1
   105    71    68   ar
   106    70    68   ar
   107    70    69   ar
   108    68    66   ar
   109    69    67   ar
   110    66    67   ar
   111    66    65    1
   112   164   163    2
   113   119   118    2
   114   109   116   am
   115   109   110    2
   116   122   116    1
   117   122   121    1
   118   163   162    1
   119    31    29   ar
   120    31    32   ar
   121   169   167   ar
   122   169   171   ar
   123    29    27   ar
   124    18    17    1
   125    18    19    1
   126   116   117    1
   127   172   171    1
   128   167   166   ar
   129   121   120    1
   130   118   117    1
   131   118   123   am
   132    20    19    2
   133   171   170   ar
   134    25    24    2
   135   120   117    1
   136    17    14    1
   137    19    21   am
   138    33    32    1
   139    32    30   ar
   140   127   124    1
   141   127   128    1
   142    27    26    1
   143    27    28   ar
   144   162   161    1
   145   162   165    1
   146   124   123    1
   147   124   125    1
   148    26    23    1
   149   166   165    1
   150   166   168   ar
   151    16    15    2
   152   170   168   ar
   153    24    23    1
   154    30    28   ar
   155    14    15    1
   156    14    13    1
   157   136   134    1
   158    23    22    1
   159   134   133    1
   160   135   133    1
   161   129   125   am
   162   129   130    1
   163   125   126    2
   164     4     3    2
   165   133   130    1
   166     8    10   ar
   167     8     6   ar
   168    10    11   ar
   169   130   131    1
   170   140   139    2
   171     3     2    1
   172     5     6    1
   173     5     2    1
   174     6     7   ar
   175    11    12    1
   176    11     9   ar
   177   131   132    2
   178   139   138    1
   179     2     1    1
   180     7     9   ar
   181   137   138    1
