@<TRIPOS>MOLECULE
tmp/2qz3A00.pdb
 192 187 0 0 0
SMALL
GASTEIGER

@<TRIPOS>ATOM
      1  N         -2.1200  -10.6270  -30.3580 N.3     6  GLN6       -0.1245
      2  CA        -0.8280  -11.0650  -29.8490 C.3     6  GLN6        0.1566
      3  C         -1.0760  -11.8150  -28.5560 C.2     6  GLN6        0.2260
      4  O         -1.7390  -11.2880  -27.6570 O.2     6  GLN6       -0.2867
      5  CB         0.0630   -9.8320  -29.5800 C.3     6  GLN6        0.0367
      6  CG         1.3500  -10.1580  -28.7780 C.3     6  GLN6        0.0905
      7  CD         2.3230  -11.0140  -29.5410 C.2     6  GLN6        0.2608
      8  OE1        2.3090  -11.0570  -30.7710 O.2     6  GLN6       -0.2717
      9  NE2        3.1890  -11.7110  -28.8130 N.am    6  GLN6       -0.0878
     10  N          1.4090  -14.2860  -26.3400 N.3     8  TRP8       -0.1241
     11  CA         2.6530  -15.0240  -26.1500 C.3     8  TRP8        0.1605
     12  C          2.9690  -15.1900  -24.6650 C.2     8  TRP8        0.2264
     13  O          2.8350  -14.2460  -23.8780 O.2     8  TRP8       -0.2867
     14  CB         3.8180  -14.3350  -26.8640 C.3     8  TRP8        0.0550
     15  CG         5.1160  -15.0170  -26.6370 C.ar    8  TRP8        0.0003
     16  CD1        5.6420  -16.0540  -27.3730 C.ar    8  TRP8        0.0946
     17  CD2        6.0560  -14.7600  -25.5740 C.ar    8  TRP8        0.0152
     18  NE1        6.8500  -16.4340  -26.8420 N.ar    8  TRP8       -0.2442
     19  CE2        7.1350  -15.6560  -25.7470 C.ar    8  TRP8        0.0810
     20  CE3        6.1000  -13.8420  -24.5210 C.ar    8  TRP8        0.0012
     21  CZ2        8.2490  -15.6690  -24.8910 C.ar    8  TRP8        0.0191
     22  CZ3        7.2080  -13.8560  -23.6620 C.ar    8  TRP8        0.0001
     23  CH2        8.2650  -14.7660  -23.8590 C.ar    8  TRP8        0.0015
     24  N          7.5070  -14.5810  -18.3090 N.3    34  ASN34      -0.1225
     25  CA         7.2810  -13.4690  -19.2250 C.3    34  ASN34       0.1785
     26  C          6.0740  -13.7760  -20.1110 C.2    34  ASN34       0.2597
     27  O          5.9340  -14.9040  -20.6230 O.2    34  ASN34      -0.2718
     28  CB         8.5130  -13.2450  -20.1110 C.3    34  ASN34       0.1169
     29  CG         9.6570  -12.5950  -19.3570 C.2    34  ASN34       0.2627
     30  OD1        9.5850  -11.4290  -18.9830 O.2    34  ASN34      -0.2716
     31  ND2       10.7080  -13.3560  -19.1160 N.am   34  ASN34      -0.0877
     32  N          5.2150  -12.7770  -20.2930 N.am   35  PHE35      -0.1962
     33  CA         4.1000  -12.9050  -21.2560 C.3    35  PHE35       0.1771
     34  C          3.7220  -11.5330  -21.8210 C.2    35  PHE35       0.2619
     35  O          3.9520  -10.4960  -21.1840 O.2    35  PHE35      -0.2715
     36  CB         2.8830  -13.5780  -20.5860 C.3    35  PHE35       0.0574
     37  CG         2.1330  -12.6700  -19.6270 C.ar   35  PHE35      -0.0200
     38  CD1        2.5680  -12.5190  -18.2970 C.ar   35  PHE35      -0.0042
     39  CD2        1.0280  -11.9390  -20.0580 C.ar   35  PHE35      -0.0042
     40  CE1        1.8960  -11.6550  -17.4330 C.ar   35  PHE35      -0.0003
     41  CE2        0.3530  -11.0860  -19.1910 C.ar   35  PHE35      -0.0003
     42  CZ         0.7900  -10.9540  -17.8780 C.ar   35  PHE35      -0.0000
     43  N          3.1270  -11.5400  -23.0120 N.am   36  VAL36      -0.1977
     44  CA         2.5980  -10.3210  -23.6310 C.3    36  VAL36       0.1596
     45  C          1.3530  -10.7130  -24.4180 C.2    36  VAL36       0.2287
     46  O          1.4020  -11.6190  -25.2730 O.2    36  VAL36      -0.2864
     47  CB         3.6070   -9.6310  -24.6110 C.3    36  VAL36       0.0276
     48  CG1        3.0150   -8.3230  -25.1440 C.3    36  VAL36       0.0022
     49  CG2        4.9340   -9.3700  -23.9510 C.3    36  VAL36       0.0022
     50  N          2.9370   -1.6940  -26.9710 N.3    68  TYR68      -0.1241
     51  CA         3.9980   -2.6840  -27.0990 C.3    68  TYR68       0.1605
     52  C          4.2300   -3.0030  -28.5770 C.2    68  TYR68       0.2264
     53  O          3.2730   -3.2690  -29.3310 O.2    68  TYR68      -0.2867
     54  CB         3.5990   -3.9600  -26.3490 C.3    68  TYR68       0.0534
     55  CG         4.6420   -5.0590  -26.4460 C.ar   68  TYR68      -0.0201
     56  CD1        5.7470   -5.0780  -25.5920 C.ar   68  TYR68      -0.0009
     57  CD2        4.5390   -6.0520  -27.4270 C.ar   68  TYR68      -0.0009
     58  CE1        6.7140   -6.0840  -25.6840 C.ar   68  TYR68       0.0417
     59  CE2        5.5000   -7.0540  -27.5450 C.ar   68  TYR68       0.0417
     60  CZ         6.5810   -7.0650  -26.6740 C.ar   68  TYR68       0.1957
     61  OH         7.5170   -8.0710  -26.8000 O.3    68  TYR68      -0.2866
     62  N          7.5150   -3.8990  -31.9070 N.3    70  TRP70      -0.1241
     63  CA         8.8890   -4.1600  -32.3250 C.3    70  TRP70       0.1605
     64  C          9.2330   -3.4200  -33.6070 C.2    70  TRP70       0.2264
     65  O          8.3600   -3.1560  -34.4450 O.2    70  TRP70      -0.2867
     66  CB         9.0720   -5.6540  -32.6040 C.3    70  TRP70       0.0550
     67  CG         9.0080   -6.5540  -31.3860 C.ar   70  TRP70       0.0003
     68  CD1        7.8880   -7.0860  -30.8060 C.ar   70  TRP70       0.0946
     69  CD2       10.1210   -7.0390  -30.6350 C.ar   70  TRP70       0.0152
     70  NE1        8.2410   -7.8770  -29.7320 N.ar   70  TRP70      -0.2442
     71  CE2        9.6060   -7.8540  -29.5970 C.ar   70  TRP70       0.0810
     72  CE3       11.5100   -6.8590  -30.7300 C.ar   70  TRP70       0.0012
     73  CZ2       10.4340   -8.4870  -28.6630 C.ar   70  TRP70       0.0191
     74  CZ3       12.3200   -7.4840  -29.8100 C.ar   70  TRP70       0.0001
     75  CH2       11.7820   -8.2860  -28.7830 C.ar   70  TRP70       0.0015
     76  N         12.5650   -3.9650  -36.6210 N.3    72  ARG72      -0.1245
     77  CA        13.8210   -4.6020  -37.0020 C.3    72  ARG72       0.1563
     78  C         14.6330   -3.5680  -37.7790 C.2    72  ARG72       0.2260
     79  O         14.0810   -2.5990  -38.2660 O.2    72  ARG72      -0.2867
     80  CB        13.5670   -5.8220  -37.8910 C.3    72  ARG72       0.0307
     81  CG        12.9660   -7.0150  -37.1900 C.3    72  ARG72       0.0489
     82  CD        12.7130   -8.1390  -38.2090 C.3    72  ARG72       0.2205
     83  NE        12.2870   -9.4050  -37.6040 N.pl3  72  ARG72      -0.0865
     84  CZ        11.0500   -9.9060  -37.6460 C.cat  72  ARG72       0.5346
     85  NH1       10.0600   -9.2500  -38.2420 N.pl3  72  ARG72       0.1354
     86  NH2       10.8040  -11.0760  -37.0690 N.pl3  72  ARG72       0.1354
     87  N         12.5770   -3.5450  -29.0110 N.3    77  GLU77      -0.1245
     88  CA        11.2850   -3.7670  -28.3660 C.3    77  GLU77       0.1567
     89  C         10.9170   -2.4670  -27.6640 C.2    77  GLU77       0.2260
     90  O         11.7440   -1.8950  -26.9490 O.2    77  GLU77      -0.2867
     91  CB        11.3950   -4.9020  -27.3610 C.3    77  GLU77       0.0388
     92  CG        10.0510   -5.3330  -26.7200 C.3    77  GLU77       0.1160
     93  CD        10.2730   -6.3200  -25.5810 C.2    77  GLU77       0.3649
     94  OE1       11.0590   -6.0030  -24.6610 O.co2  77  GLU77      -0.2457
     95  OE2        9.6700   -7.4140  -25.6010 O.co2  77  GLU77      -0.2457
     96  N          7.9440    0.1770  -25.5120 N.3    79  TYR79      -0.1241
     97  CA         6.8280    0.2510  -24.5890 C.3    79  TYR79       0.1605
     98  C          6.3880    1.7000  -24.3750 C.2    79  TYR79       0.2264
     99  O          7.2430    2.5990  -24.2000 O.2    79  TYR79      -0.2867
    100  CB         7.2900   -0.2280  -23.2190 C.3    79  TYR79       0.0534
    101  CG         7.7410   -1.6640  -23.1430 C.ar   79  TYR79      -0.0201
    102  CD1        9.0530   -2.0230  -23.4980 C.ar   79  TYR79      -0.0009
    103  CD2        6.8800   -2.6560  -22.6590 C.ar   79  TYR79      -0.0009
    104  CE1        9.4830   -3.3440  -23.4040 C.ar   79  TYR79       0.0417
    105  CE2        7.3010   -4.0020  -22.5700 C.ar   79  TYR79       0.0417
    106  CZ         8.6010   -4.3220  -22.9460 C.ar   79  TYR79       0.1957
    107  OH         9.0570   -5.6160  -22.8390 O.3    79  TYR79      -0.2866
    108  N         18.1410   -6.2850  -23.1190 N.3   111  ARG111     -0.1245
    109  CA        17.8120   -7.6800  -22.8400 C.3   111  ARG111      0.1563
    110  C         18.8400   -8.5790  -23.5150 C.2   111  ARG111      0.2260
    111  O         19.1520   -8.3850  -24.6860 O.2   111  ARG111     -0.2867
    112  CB        16.4140   -8.0300  -23.3540 C.3   111  ARG111      0.0307
    113  CG        15.2780   -7.5740  -22.4650 C.3   111  ARG111      0.0489
    114  CD        14.9330   -8.5820  -21.3880 C.3   111  ARG111      0.2205
    115  NE        14.0580   -9.6550  -21.8690 N.pl3 111  ARG111     -0.0865
    116  CZ        13.7900  -10.7560  -21.1710 C.cat 111  ARG111      0.5346
    117  NH1       14.3440  -10.9290  -19.9810 N.pl3 111  ARG111      0.1354
    118  NH2       12.9830  -11.6860  -21.6550 N.pl3 111  ARG111      0.1354
    119  N         13.9890  -14.2180  -25.5020 N.3   115  PRO115     -0.2102
    120  CA        13.1190  -14.3930  -26.6620 C.3   115  PRO115      0.1504
    121  C         12.7480  -13.0450  -27.2860 C.2   115  PRO115      0.2576
    122  O         12.6240  -12.0380  -26.5830 O.2   115  PRO115     -0.2718
    123  CB        11.8700  -15.0940  -26.0910 C.3   115  PRO115      0.0282
    124  CG        12.2190  -15.4860  -24.6830 C.3   115  PRO115      0.0208
    125  CD        13.3200  -14.5880  -24.2370 C.3   115  PRO115      0.0893
    126  N         12.6020  -13.0460  -28.6040 N.am  116  SER116     -0.1938
    127  CA        12.2010  -11.8750  -29.3640 C.3   116  SER116      0.2055
    128  C         11.5140  -12.3800  -30.6110 C.2   116  SER116      0.2642
    129  O         11.3920  -13.5980  -30.8130 O.2   116  SER116     -0.2714
    130  CB        13.4280  -11.0330  -29.7450 C.3   116  SER116      0.2130
    131  OG        14.2060  -11.6900  -30.7420 O.3   116  SER116     -0.2179
    132  N         11.0840  -11.4500  -31.4610 N.am  117  ILE117     -0.1977
    133  CA        10.4930  -11.8160  -32.7450 C.3   117  ILE117      0.1596
    134  C         11.5400  -12.4850  -33.6560 C.2   117  ILE117      0.2287
    135  O         11.1910  -13.0900  -34.6650 O.2   117  ILE117     -0.2864
    136  CB         9.8420  -10.6080  -33.4680 C.3   117  ILE117      0.0276
    137  CG1       10.8410   -9.4590  -33.6380 C.3   117  ILE117      0.0022
    138  CG2        8.5730  -10.1590  -32.7370 C.3   117  ILE117      0.0022
    139  CD1       10.3890   -8.4130  -34.6320 C.3   117  ILE117      0.0001
    140  N         13.9630  -14.7520  -32.5080 N.3   119  GLY119     -0.1210
    141  CA        14.3900  -16.0620  -32.0160 C.3   119  GLY119      0.1956
    142  C         14.3240  -16.2390  -30.5150 C.2   119  GLY119      0.2611
    143  O         13.9680  -15.3180  -29.7770 O.2   119  GLY119     -0.2717
    144  N         14.6930  -17.4340  -30.0620 N.am  120  ASP120     -0.1973
    145  CA        14.5500  -17.8190  -28.6540 C.3   120  ASP120      0.1709
    146  C         15.5990  -17.2100  -27.7310 C.2   120  ASP120      0.2293
    147  O         15.3280  -16.9700  -26.5590 O.2   120  ASP120     -0.2864
    148  CB        14.5720  -19.3500  -28.5190 C.3   120  ASP120      0.1436
    149  CG        13.3790  -20.0160  -29.1960 C.2   120  ASP120      0.3671
    150  OD1       12.2490  -19.4920  -29.0700 O.co2 120  ASP120     -0.2456
    151  OD2       13.5710  -21.0670  -29.8500 O.co2 120  ASP120     -0.2456
    152  N         18.6820   -7.4490  -27.5300 N.3   124  PHE124     -0.1241
    153  CA        18.0230   -6.3060  -28.1260 C.3   124  PHE124      0.1605
    154  C         17.8680   -5.1990  -27.1020 C.2   124  PHE124      0.2264
    155  O         17.8390   -5.4460  -25.8980 O.2   124  PHE124     -0.2867
    156  CB        16.6480   -6.6820  -28.7150 C.3   124  PHE124      0.0534
    157  CG        15.7550   -7.4330  -27.7620 C.ar  124  PHE124     -0.0203
    158  CD1       15.8310   -8.8290  -27.6650 C.ar  124  PHE124     -0.0042
    159  CD2       14.8200   -6.7530  -26.9730 C.ar  124  PHE124     -0.0042
    160  CE1       15.0180   -9.5350  -26.7940 C.ar  124  PHE124     -0.0003
    161  CE2       14.0010   -7.4510  -26.0850 C.ar  124  PHE124     -0.0003
    162  CZ        14.0920   -8.8410  -25.9970 C.ar  124  PHE124     -0.0000
    163  N         15.6080   -2.1710  -25.4840 N.3   126  GLN126     -0.1245
    164  CA        14.2270   -1.8310  -25.1740 C.3   126  GLN126      0.1566
    165  C         14.1400   -0.3210  -24.9900 C.2   126  GLN126      0.2260
    166  O         14.9780    0.2590  -24.2840 O.2   126  GLN126     -0.2867
    167  CB        13.8060   -2.5310  -23.8770 C.3   126  GLN126      0.0367
    168  CG        13.8160   -4.0630  -23.9640 C.3   126  GLN126      0.0905
    169  CD        13.6170   -4.7130  -22.6200 C.2   126  GLN126      0.2608
    170  OE1       14.4100   -4.5110  -21.6930 O.2   126  GLN126     -0.2717
    171  NE2       12.5690   -5.5280  -22.5030 N.am  126  GLN126     -0.0878
    172  N          4.7870   -5.8830  -35.4430 N.3   165  TYR165     -0.1241
    173  CA         3.4730   -5.6150  -34.8750 C.3   165  TYR165      0.1605
    174  C          3.4850   -4.5260  -33.8010 C.2   165  TYR165      0.2264
    175  O          4.5450   -4.1310  -33.2840 O.2   165  TYR165     -0.2867
    176  CB         2.8200   -6.9050  -34.3770 C.3   165  TYR165      0.0534
    177  CG         3.5190   -7.5730  -33.2070 C.ar  165  TYR165     -0.0201
    178  CD1        3.3550   -7.0940  -31.9050 C.ar  165  TYR165     -0.0009
    179  CD2        4.3180   -8.7010  -33.4040 C.ar  165  TYR165     -0.0009
    180  CE1        4.0030   -7.7140  -30.8210 C.ar  165  TYR165      0.0417
    181  CE2        4.9660   -9.3380  -32.3250 C.ar  165  TYR165      0.0417
    182  CZ         4.7900   -8.8420  -31.0410 C.ar  165  TYR165      0.1957
    183  OH         5.3960   -9.4630  -29.9700 O.3   165  TYR165     -0.2866
    184  N          1.3160   -6.8960  -20.3040 N.3   171  ALA171     -0.1231
    185  CA         2.6050   -7.5680  -20.3810 C.3   171  ALA171      0.1694
    186  C          3.1070   -7.7160  -18.9670 C.2   171  ALA171      0.2592
    187  O          2.8590   -6.8400  -18.1370 O.2   171  ALA171     -0.2718
    188  CB         3.5880   -6.7480  -21.2160 C.3   171  ALA171      0.0304
    189  N          3.7930   -8.8170  -18.6810 N.am  172  GLY172     -0.1957
    190  CA         4.2250   -9.0710  -17.3080 C.3   172  GLY172      0.1869
    191  C          5.3650  -10.0530  -17.1510 C.2   172  GLY172      0.2309
    192  O          5.7710  -10.7370  -18.1120 O.2   172  GLY172     -0.2863
@<TRIPOS>BOND
     1    79    78    2
     2    85    84    1
     3    82    83    1
     4    82    81    1
     5    80    81    1
     6    80    77    1
     7    78    77    1
     8    84    83    2
     9    84    86    1
    10    77    76    1
    11   172   173    1
    12   173   176    1
    13   173   174    1
    14   135   134    2
    15   139   137    1
    16    65    64    2
    17   176   177    1
    18   174   175    2
    19   134   133    1
    20   137   136    1
    21    64    63    1
    22   136   133    1
    23   136   138    1
    24   179   177   ar
    25   179   181   ar
    26   177   178   ar
    27   133   132    1
    28    66    63    1
    29    66    67    1
    30   140   141    1
    31    63    62    1
    32   181   182   ar
    33   141   142    1
    34   178   180   ar
    35   132   128   am
    36    67    68   ar
    37    67    69   ar
    38   182   180   ar
    39   182   183    1
    40   129   128    2
    41    68    70   ar
    42     8     7    2
    43   131   130    1
    44    72    69   ar
    45    72    74   ar
    46    69    71   ar
    47   128   127    1
    48   142   144   am
    49   142   143    2
    50     1     2    1
    51   144   145    1
    52   151   149   ar
    53     2     5    1
    54     2     3    1
    55    74    75   ar
    56   130   127    1
    57    70    71   ar
    58    71    73   ar
    59     5     6    1
    60     7     9   am
    61     7     6    1
    62   127   126    1
    63    53    52    2
    64   149   150   ar
    65   149   148    1
    66    87    88    1
    67    75    73   ar
    68   156   153    1
    69   156   157    1
    70   145   148    1
    71   145   146    1
    72   126   121   am
    73    52    51    1
    74     3     4    2
    75    88    89    1
    76    88    91    1
    77   153   152    1
    78   153   154    1
    79   157   158   ar
    80   157   159   ar
    81   146   147    2
    82   158   160   ar
    83    89    90    2
    84    59    57   ar
    85    59    60   ar
    86    57    55   ar
    87    16    18   ar
    88    16    15   ar
    89    91    92    1
    90   121   120    1
    91   121   122    2
    92   154   155    2
    93    51    50    1
    94    51    54    1
    95   159   161   ar
    96    14    15    1
    97    14    11    1
    98    18    19   ar
    99    61    60    1
   100   160   162   ar
   101    92    93    1
   102    60    58   ar
   103   120   123    1
   104   120   119    1
   105    15    17   ar
   106    55    54    1
   107    55    56   ar
   108    10    11    1
   109    11    12    1
   110   123   124    1
   111   161   162   ar
   112    19    17   ar
   113    19    21   ar
   114    58    56   ar
   115    95    93   ar
   116    93    94   ar
   117    17    20   ar
   118    96    97    1
   119   119   125    1
   120   163   164    1
   121    46    45    2
   122   164   165    1
   123   164   167    1
   124    48    47    1
   125   165   166    2
   126    21    23   ar
   127   111   110    2
   128   124   125    1
   129    12    13    2
   130    47    49    1
   131    47    44    1
   132    97    98    1
   133    97   100    1
   134    20    22   ar
   135    45    44    1
   136    98    99    2
   137   168   167    1
   138   168   169    1
   139    23    22   ar
   140    44    43    1
   141   110   109    1
   142   102   104   ar
   143   102   101   ar
   144   104   106   ar
   145   112   109    1
   146   112   113    1
   147   100   101    1
   148   101   103   ar
   149   108   109    1
   150    43    34   am
   151   106   107    1
   152   106   105   ar
   153   103   105   ar
   154   169   171   am
   155   169   170    2
   156   113   114    1
   157   115   114    1
   158   115   116    2
   159    34    33    1
   160    34    35    2
   161   118   116    1
   162    33    36    1
   163    33    32    1
   164   188   185    1
   165   116   117    1
   166    27    26    2
   167    36    37    1
   168   185   184    1
   169   185   186    1
   170    32    26   am
   171    28    29    1
   172    28    25    1
   173    26    25    1
   174    39    37   ar
   175    39    41   ar
   176    37    38   ar
   177    29    31   am
   178    29    30    2
   179    25    24    1
   180    41    42   ar
   181   186   189   am
   182   186   187    2
   183   189   190    1
   184    38    40   ar
   185   192   191    2
   186    42    40   ar
   187   190   191    1
