@<TRIPOS>MOLECULE
tmp/2qz4A00.pdb
 148 140 0 0 0
SMALL
GASTEIGER

@<TRIPOS>ATOM
      1  N          8.4910   37.0780   15.4620 N.3     7  ASP7       -0.1225
      2  CA         7.6590   35.9330   15.7610 C.3     7  ASP7        0.1805
      3  C          8.4360   34.6390   15.6760 C.2     7  ASP7        0.2598
      4  O          7.9060   33.5910   16.0180 O.2     7  ASP7       -0.2718
      5  CB         6.5350   35.8430   14.7210 C.3     7  ASP7        0.1424
      6  CG         5.6500   37.0490   14.7300 C.2     7  ASP7        0.3668
      7  OD1        5.0690   37.3010   15.7920 O.co2   7  ASP7       -0.2456
      8  OD2        5.5320   37.7260   13.6900 O.co2   7  ASP7       -0.2456
      9  N          9.6690   34.7170   15.1680 N.am    8  VAL8       -0.1966
     10  CA        10.5330   33.5510   14.9250 C.3     8  VAL8        0.1727
     11  C         11.5890   33.4930   16.0370 C.2     8  VAL8        0.2616
     12  O         12.5550   34.2570   16.0670 O.2     8  VAL8       -0.2715
     13  CB        11.2540   33.6270   13.5280 C.3     8  VAL8        0.0290
     14  CG1       12.0790   32.3520   13.2720 C.3     8  VAL8        0.0023
     15  CG2       10.2540   33.9150   12.3640 C.3     8  VAL8        0.0023
     16  N         11.4030   32.5990   16.9840 N.am    9  ALA9       -0.1977
     17  CA        12.3190   32.5540   18.1230 C.3     9  ALA9        0.1597
     18  C         13.5140   31.6570   17.8140 C.2     9  ALA9        0.2287
     19  O         13.3910   30.6500   17.1240 O.2     9  ALA9       -0.2864
     20  CB        11.5820   32.0950   19.3590 C.3     9  ALA9        0.0319
     21  N         16.8590   30.3360   16.0490 N.3    11  MET11      -0.1245
     22  CA        17.1490   30.2370   14.6500 C.3    11  MET11       0.1570
     23  C         18.0230   31.4100   14.1770 C.2    11  MET11       0.2261
     24  O         17.7960   32.0020   13.1190 O.2    11  MET11      -0.2867
     25  CB        15.8230   30.2320   13.9280 C.3    11  MET11       0.0387
     26  CG        15.7970   29.4130   12.7130 C.3    11  MET11       0.0595
     27  SD        14.3310   29.8740   11.8330 S.3    11  MET11      -0.1393
     28  CE        13.1680   28.7030   12.4270 C.3    11  MET11       0.0692
     29  N         10.4330   18.2590   10.8290 N.3    42  PRO42      -0.2102
     30  CA         9.1820   18.9870   10.8440 C.3    42  PRO42       0.1504
     31  C          8.9220   19.7760   12.1460 C.2    42  PRO42       0.2576
     32  O          9.3070   19.3350   13.2650 O.2    42  PRO42      -0.2718
     33  CB         8.1210   17.8770   10.7120 C.3    42  PRO42       0.0282
     34  CG         8.8790   16.5890   10.3960 C.3    42  PRO42       0.0208
     35  CD        10.2580   16.7960   10.8730 C.3    42  PRO42       0.0893
     36  N          8.2340   20.9030   11.9640 N.am   43  GLY43      -0.1943
     37  CA         7.7530   21.7360   13.0330 C.3    43  GLY43       0.2014
     38  C          8.8050   22.6660   13.5710 C.2    43  GLY43       0.2639
     39  O          8.6620   23.1280   14.7000 O.2    43  GLY43      -0.2714
     40  N          9.8640   22.9120   12.7820 N.am   44  CYS44      -0.1953
     41  CA        11.0460   23.6190   13.2970 C.3    44  CYS44       0.1843
     42  C         11.1810   24.9980   12.6880 C.2    44  CYS44       0.2626
     43  O         12.2050   25.6400   12.8110 O.2    44  CYS44      -0.2714
     44  CB        12.3650   22.8280   13.1640 C.3    44  CYS44       0.0997
     45  SG        12.5070   21.3770   14.1750 S.3    44  CYS44      -0.0797
     46  N         10.1010   25.4940   12.1280 N.am   45  GLY45      -0.1940
     47  CA        10.0640   26.8780   11.7250 C.3    45  GLY45       0.2014
     48  C         10.4890   27.2270   10.3000 C.2    45  GLY45       0.2639
     49  O         10.6540   28.3840   10.0170 O.2    45  GLY45      -0.2714
     50  N         10.6640   26.2420    9.4060 N.am   46  LYS46      -0.1963
     51  CA        11.0420   26.5100    7.9910 C.3    46  LYS46       0.1728
     52  C         10.0340   27.4070    7.3200 C.2    46  LYS46       0.2617
     53  O         10.3800   28.4510    6.7510 O.2    46  LYS46      -0.2715
     54  CB        11.2860   25.2060    7.1840 C.3    46  LYS46       0.0311
     55  CG        12.4500   24.3670    7.7670 C.3    46  LYS46       0.0038
     56  CD        12.7910   23.1130    7.0050 C.3    46  LYS46       0.0206
     57  CE        11.6990   22.0850    7.0020 C.3    46  LYS46       0.1093
     58  NZ        11.2550   21.7270    8.3790 N.3    46  LYS46      -0.1314
     59  N          8.7750   27.0350    7.4240 N.am   47  THR47      -0.1937
     60  CA         7.6980   27.8400    6.8410 C.3    47  THR47       0.2028
     61  C          7.5820   29.2060    7.4830 C.2    47  THR47       0.2642
     62  O          7.4710   30.2090    6.7930 O.2    47  THR47      -0.2714
     63  CB         6.3940   27.0640    6.9130 C.3    47  THR47       0.1808
     64  OG1        6.5480   25.9280    6.0670 O.3    47  THR47      -0.2208
     65  CG2        5.1810   27.8930    6.4140 C.3    47  THR47       0.0379
     66  N          7.6100   29.2460    8.8050 N.am   48  LEU48      -0.1977
     67  CA         7.6080   30.4960    9.5700 C.3    48  LEU48       0.1596
     68  C          8.7470   31.4370    9.1090 C.2    48  LEU48       0.2287
     69  O          8.5440   32.6340    8.8900 O.2    48  LEU48      -0.2864
     70  CB         7.7200   30.1410   11.0710 C.3    48  LEU48       0.0297
     71  CG         7.3640   31.1020   12.1990 C.3    48  LEU48       0.0022
     72  CD1        5.8440   31.3700   12.2740 C.3    48  LEU48       0.0001
     73  CD2        7.9150   30.5530   13.5830 C.3    48  LEU48       0.0001
     74  N          7.3130   30.0450   -2.3120 N.3    97  TYR97      -0.1241
     75  CA         7.6810   29.0460   -1.3040 C.3    97  TYR97       0.1605
     76  C          7.1500   27.6830   -1.6940 C.2    97  TYR97       0.2264
     77  O          5.9580   27.5270   -1.8630 O.2    97  TYR97      -0.2867
     78  CB         7.1000   29.4320    0.0540 C.3    97  TYR97       0.0534
     79  CG         7.4030   28.4670    1.1820 C.ar   97  TYR97      -0.0201
     80  CD1        6.3820   27.8250    1.8890 C.ar   97  TYR97      -0.0009
     81  CD2        8.7110   28.1650    1.5140 C.ar   97  TYR97      -0.0009
     82  CE1        6.6750   26.9380    2.9530 C.ar   97  TYR97       0.0417
     83  CE2        9.0200   27.2670    2.5400 C.ar   97  TYR97       0.0417
     84  CZ         8.0070   26.6660    3.2620 C.ar   97  TYR97       0.1957
     85  OH         8.3690   25.8020    4.3010 O.3    97  TYR97      -0.2866
     86  N          6.6670   24.1810   -0.2560 N.3    99  ASP99      -0.1239
     87  CA         6.6400   23.5340    1.0050 C.3    99  ASP99       0.1674
     88  C          6.7740   22.0360    0.8370 C.2    99  ASP99       0.2266
     89  O          5.9240   21.4060    0.2000 O.2    99  ASP99      -0.2867
     90  CB         5.2810   23.8350    1.6080 C.3    99  ASP99       0.1410
     91  CG         5.2060   23.5150    3.0550 C.2    99  ASP99       0.3668
     92  OD1        6.1670   22.9310    3.5970 O.co2  99  ASP99      -0.2456
     93  OD2        4.1660   23.8630    3.6370 O.co2  99  ASP99      -0.2456
     94  N         11.3550   24.0850    1.0220 N.3   126  SER126     -0.1217
     95  CA        11.6160   23.3350    2.2350 C.3   126  SER126      0.1889
     96  C         11.4060   21.8590    2.0150 C.2   126  SER126      0.2288
     97  O         10.6710   21.4680    1.1020 O.2   126  SER126     -0.2866
     98  CB        10.7290   23.8520    3.4080 C.3   126  SER126      0.2089
     99  OG         9.4330   23.2930    3.3360 O.3   126  SER126     -0.2183
    100  N         11.9800   17.7660    4.4600 N.3   128  ASN128     -0.1240
    101  CA        12.4890   16.9190    5.5500 C.3   128  ASN128      0.1653
    102  C         13.4990   15.8790    5.0320 C.2   128  ASN128      0.2266
    103  O         14.1560   15.2000    5.8050 O.2   128  ASN128     -0.2867
    104  CB        11.3230   16.1820    6.2830 C.3   128  ASN128      0.1155
    105  CG        10.1900   17.1080    6.6650 C.2   128  ASN128      0.2627
    106  OD1        9.0300   16.8950    6.2770 O.2   128  ASN128     -0.2716
    107  ND2       10.5130   18.1460    7.4450 N.am  128  ASN128     -0.0877
    108  N         11.6280   30.0060   22.3140 N.3   160  ILE160     -0.1245
    109  CA        10.3380   29.5860   21.7210 C.3   160  ILE160      0.1561
    110  C          9.2510   29.5550   22.8030 C.2   160  ILE160      0.2260
    111  O          8.1370   30.0630   22.5970 O.2   160  ILE160     -0.2867
    112  CB        10.4340   28.1940   20.9690 C.3   160  ILE160      0.0252
    113  CG1       11.4440   28.2610   19.8190 C.3   160  ILE160      0.0019
    114  CG2        9.0510   27.7540   20.4230 C.3   160  ILE160      0.0019
    115  CD1       12.0590   26.9400   19.4030 C.3   160  ILE160      0.0001
    116  N          8.3660   33.2350   23.5090 N.3   163  GLN163     -0.1231
    117  CA         7.5710   33.7840   22.4270 C.3   163  GLN163      0.1698
    118  C          6.0960   33.3630   22.4950 C.2   163  GLN163      0.2592
    119  O          5.1860   34.1720   22.3470 O.2   163  GLN163     -0.2718
    120  CB         8.1490   33.3290   21.0690 C.3   163  GLN163      0.0381
    121  CG         7.4740   33.9390   19.8810 C.3   163  GLN163      0.0905
    122  CD         7.4910   35.4660   19.9310 C.2   163  GLN163      0.2608
    123  OE1        6.4560   36.1130   19.7490 O.2   163  GLN163     -0.2717
    124  NE2        8.6670   36.0440   20.1740 N.am  163  GLN163     -0.0878
    125  N          5.8490   32.0850   22.7010 N.am  164  HIS164     -0.1976
    126  CA         4.4820   31.6220   22.7290 C.3   164  HIS164      0.1656
    127  C          3.7750   31.9440   24.0600 C.2   164  HIS164      0.2291
    128  O          2.5900   32.2640   24.0860 O.2   164  HIS164     -0.2864
    129  CB         4.4500   30.1550   22.3240 C.3   164  HIS164      0.0771
    130  CG         4.7120   29.9390   20.8500 C.ar  164  HIS164      0.0820
    131  ND1        3.7480   30.1540   19.8910 N.ar  164  HIS164     -0.2267
    132  CD2        5.8310   29.5660   20.1740 C.ar  164  HIS164      0.1154
    133  CE1        4.2440   29.9000   18.6860 C.ar  164  HIS164      0.1986
    134  NE2        5.5080   29.5350   18.8280 N.ar  164  HIS164     -0.2212
    135  N          9.6090   23.3610   17.7010 N.3   190  GLY190     -0.1210
    136  CA         8.8880   24.5920   18.0120 C.3   190  GLY190      0.1956
    137  C          7.3910   24.3680   17.9720 C.2   190  GLY190      0.2611
    138  O          6.6180   25.0170   18.6780 O.2   190  GLY190     -0.2717
    139  N          6.9550   23.4480   17.1180 N.am  191  ALA191     -0.1979
    140  CA         5.5320   23.1390   17.0380 C.3   191  ALA191      0.1597
    141  C          5.0370   22.4490   18.3180 C.2   191  ALA191      0.2287
    142  O          3.9960   22.8140   18.8330 O.2   191  ALA191     -0.2864
    143  CB         5.2300   22.3140   15.8010 C.3   191  ALA191      0.0319
    144  N          4.8750   25.0420   20.8940 N.3   194  ALA194     -0.1245
    145  CA         3.6330   25.8190   20.7360 C.3   194  ALA194      0.1562
    146  C          2.3790   25.0460   21.2070 C.2   194  ALA194      0.2260
    147  O          1.4450   25.6110   21.7760 O.2   194  ALA194     -0.2867
    148  CB         3.4560   26.2780   19.2910 C.3   194  ALA194      0.0290
@<TRIPOS>BOND
     1    74    75    1
     2    77    76    2
     3    76    75    1
     4    75    78    1
     5    86    87    1
     6    78    79    1
     7    89    88    2
     8    88    87    1
     9    87    90    1
    10    94    95    1
    11    97    96    2
    12    79    81   ar
    13    79    80   ar
    14    81    83   ar
    15    90    91    1
    16    80    82   ar
    17    96    95    1
    18    95    98    1
    19    83    84   ar
    20    82    84   ar
    21    91    92   ar
    22    91    93   ar
    23    84    85    1
    24    99    98    1
    25   100   101    1
    26   102   101    1
    27   102   103    2
    28   101   104    1
    29    64    63    1
    30   106   105    2
    31   104   105    1
    32    65    63    1
    33   105   107   am
    34    53    52    2
    35    62    61    2
    36    60    63    1
    37    60    59    1
    38    60    61    1
    39    57    56    1
    40    57    58    1
    41    56    55    1
    42    54    55    1
    43    54    51    1
    44    52    59   am
    45    52    51    1
    46    61    66   am
    47    51    50    1
    48    66    67    1
    49    69    68    2
    50    68    67    1
    51    50    48   am
    52    67    70    1
    53    49    48    2
    54    48    47    1
    55    34    33    1
    56    34    35    1
    57    33    30    1
    58    29    30    1
    59    29    35    1
    60    30    31    1
    61    70    71    1
    62    47    46    1
    63    27    28    1
    64    27    26    1
    65    36    31   am
    66    36    37    1
    67    46    42   am
    68    31    32    2
    69    71    72    1
    70    71    73    1
    71    15    13    1
    72    42    43    2
    73    42    41    1
    74    26    25    1
    75    40    41    1
    76    40    38   am
    77    37    38    1
    78    24    23    2
    79    44    41    1
    80    44    45    1
    81    14    13    1
    82    13    10    1
    83    38    39    2
    84     8     6   ar
    85    25    22    1
    86    23    22    1
    87    22    21    1
    88     5     6    1
    89     5     2    1
    90     6     7   ar
    91    10     9    1
    92    10    11    1
    93     9     3   am
    94     1     2    1
    95     3     2    1
    96     3     4    2
    97   143   140    1
    98    11    12    2
    99    11    16   am
   100    16    17    1
   101   140   139    1
   102   140   141    1
   103   139   137   am
   104    19    18    2
   105   135   136    1
   106    18    17    1
   107   137   136    1
   108   137   138    2
   109    17    20    1
   110   141   142    2
   111   133   134   ar
   112   133   131   ar
   113   134   132   ar
   114   148   145    1
   115   115   113    1
   116   123   122    2
   117   113   112    1
   118   121   122    1
   119   121   120    1
   120   131   130   ar
   121   122   124   am
   122   132   130   ar
   123   114   112    1
   124   145   144    1
   125   145   146    1
   126   130   129    1
   127   112   109    1
   128   120   117    1
   129   146   147    2
   130   109   108    1
   131   109   110    1
   132   129   126    1
   133   119   118    2
   134   117   118    1
   135   117   116    1
   136   118   125   am
   137   111   110    2
   138   125   126    1
   139   126   127    1
   140   127   128    2
