@<TRIPOS>MOLECULE
tmp/2qzkA00.pdb
 215 206 0 0 0
SMALL
GASTEIGER

@<TRIPOS>ATOM
      1  N         32.5550   51.7180    6.9380 N.3    14  GLY14      -0.1210
      2  CA        31.9550   51.0990    5.7710 C.3    14  GLY14       0.1956
      3  C         32.8530   50.2570    4.8880 C.2    14  GLY14       0.2612
      4  O         32.5020   49.9900    3.7350 O.2    14  GLY14      -0.2717
      5  N         34.0030   49.8260    5.3970 N.am   15  GLN15      -0.1965
      6  CA        34.8840   49.0090    4.5740 C.3    15  GLN15       0.1733
      7  C         35.2900   47.6480    5.1490 C.2    15  GLN15       0.2617
      8  O         35.9020   46.8420    4.4520 O.2    15  GLN15      -0.2715
      9  CB        36.1110   49.8270    4.1680 C.3    15  GLN15       0.0408
     10  CG        35.7470   50.9630    3.1990 C.3    15  GLN15       0.0908
     11  CD        36.9420   51.7710    2.7210 C.2    15  GLN15       0.2608
     12  OE1       36.9210   52.3310    1.6250 O.2    15  GLN15      -0.2717
     13  NE2       37.9780   51.8500    3.5410 N.am   15  GLN15      -0.0878
     14  N         34.9500   47.3830    6.4080 N.am   16  GLY16      -0.1940
     15  CA        35.2680   46.0860    6.9800 C.3    16  GLY16       0.2014
     16  C         36.0990   46.0920    8.2470 C.2    16  GLY16       0.2638
     17  O         37.0380   46.8750    8.3780 O.2    16  GLY16      -0.2714
     18  N         35.7420   45.2100    9.1800 N.am   17  TYR17      -0.1973
     19  CA        36.4570   45.0880   10.4470 C.3    17  TYR17       0.1639
     20  C         37.5260   44.0200   10.2860 C.2    17  TYR17       0.2290
     21  O         37.2450   42.9190    9.8050 O.2    17  TYR17      -0.2864
     22  CB        35.4940   44.7040   11.5780 C.3    17  TYR17       0.0560
     23  CG        34.4780   45.7800   11.9130 C.ar   17  TYR17      -0.0198
     24  CD1       33.2610   45.8590   11.2340 C.ar   17  TYR17      -0.0009
     25  CD2       34.7550   46.7460   12.8870 C.ar   17  TYR17      -0.0009
     26  CE1       32.3430   46.8750   11.5090 C.ar   17  TYR17       0.0417
     27  CE2       33.8450   47.7670   13.1710 C.ar   17  TYR17       0.0417
     28  CZ        32.6420   47.8240   12.4770 C.ar   17  TYR17       0.1957
     29  OH        31.7400   48.8280   12.7510 O.3    17  TYR17      -0.2866
     30  N         40.2110   40.5160    7.3510 N.3    33  LEU33      -0.1245
     31  CA        38.7880   40.7850    7.5450 C.3    33  LEU33       0.1561
     32  C         38.0980   39.7000    8.3750 C.2    33  LEU33       0.2260
     33  O         38.2380   38.5110    8.0900 O.2    33  LEU33      -0.2867
     34  CB        38.0840   40.8740    6.1890 C.3    33  LEU33       0.0270
     35  CG        36.5750   41.1510    6.2550 C.3    33  LEU33       0.0019
     36  CD1       36.3410   42.6290    6.5560 C.3    33  LEU33       0.0001
     37  CD2       35.9170   40.7640    4.9360 C.3    33  LEU33       0.0001
     38  N         35.1200   37.6880    9.0180 N.3    35  ASP35      -0.1239
     39  CA        33.9290   37.3450    8.2520 C.3    35  ASP35       0.1674
     40  C         33.1880   36.0920    8.7150 C.2    35  ASP35       0.2266
     41  O         33.6690   34.9760    8.5200 O.2    35  ASP35      -0.2867
     42  CB        34.3460   37.1680    6.7930 C.3    35  ASP35       0.1410
     43  CG        33.1760   37.1910    5.8490 C.2    35  ASP35       0.3668
     44  OD1       32.8570   38.2780    5.3340 O.co2  35  ASP35      -0.2456
     45  OD2       32.5720   36.1270    5.6290 O.co2  35  ASP35      -0.2456
     46  N         30.3740   35.1170    7.4840 N.3    37  GLY37      -0.1210
     47  CA        29.5230   34.6510    6.4000 C.3    37  GLY37       0.1956
     48  C         30.2010   33.7080    5.4140 C.2    37  GLY37       0.2612
     49  O         29.6180   33.3630    4.3810 O.2    37  GLY37      -0.2717
     50  N         31.4270   33.2920    5.7250 N.am   38  SER38      -0.1952
     51  CA        32.1880   32.3870    4.8710 C.3    38  SER38       0.1924
     52  C         33.0970   31.5100    5.7360 C.2    38  SER38       0.2314
     53  O         33.2270   31.7440    6.9330 O.2    38  SER38      -0.2863
     54  CB        33.0250   33.1800    3.8670 C.3    38  SER38       0.2116
     55  OG        33.9360   34.0200    4.5350 O.3    38  SER38      -0.2180
     56  N         31.8550   35.0370   -3.9140 N.3    74  TYR74      -0.1227
     57  CA        30.9920   35.4630   -2.8150 C.3    74  TYR74       0.1736
     58  C         29.7830   36.1740   -3.3940 C.2    74  TYR74       0.2596
     59  O         29.6850   36.3700   -4.6050 O.2    74  TYR74      -0.2718
     60  CB        31.7090   36.4570   -1.8990 C.3    74  TYR74       0.0548
     61  CG        32.9450   35.9460   -1.2040 C.ar   74  TYR74      -0.0200
     62  CD1       32.8740   34.9040   -0.2800 C.ar   74  TYR74      -0.0009
     63  CD2       34.1790   36.5530   -1.4220 C.ar   74  TYR74      -0.0009
     64  CE1       34.0100   34.4840    0.4200 C.ar   74  TYR74       0.0417
     65  CE2       35.3150   36.1420   -0.7330 C.ar   74  TYR74       0.0417
     66  CZ        35.2250   35.1100    0.1870 C.ar   74  TYR74       0.1957
     67  OH        36.3510   34.7120    0.8710 O.3    74  TYR74      -0.2866
     68  N         28.8700   36.5720   -2.5150 N.am   75  THR75      -0.1939
     69  CA        27.6870   37.3170   -2.9290 C.3    75  THR75       0.2028
     70  C         28.2050   38.5510   -3.6550 C.2    75  THR75       0.2642
     71  O         27.6090   39.0190   -4.6230 O.2    75  THR75      -0.2714
     72  CB        26.8580   37.7550   -1.7060 C.3    75  THR75       0.1808
     73  OG1       26.3170   36.5960   -1.0670 O.3    75  THR75      -0.2208
     74  CG2       25.7190   38.6790   -2.1190 C.3    75  THR75       0.0379
     75  N         29.3280   39.0640   -3.1650 N.am   76  GLN76      -0.1976
     76  CA        29.9940   40.2250   -3.7330 C.3    76  GLN76       0.1601
     77  C         31.4580   39.8640   -3.9720 C.2    76  GLN76       0.2287
     78  O         32.1830   39.5510   -3.0270 O.2    76  GLN76      -0.2864
     79  CB        29.9250   41.3970   -2.7560 C.3    76  GLN76       0.0394
     80  CG        30.5550   42.6800   -3.2690 C.3    76  GLN76       0.0908
     81  CD        29.5330   43.6330   -3.8560 C.2    76  GLN76       0.2608
     82  OE1       28.7980   43.2890   -4.7850 O.2    76  GLN76      -0.2717
     83  NE2       29.4810   44.8430   -3.3140 N.am   76  GLN76      -0.0878
     84  N         36.6640   42.4980   -7.8360 N.3   110  LYS110     -0.1231
     85  CA        35.7280   43.2180   -6.9860 C.3   110  LYS110      0.1693
     86  C         35.6020   42.6710   -5.5710 C.2   110  LYS110      0.2592
     87  O         34.5300   42.7190   -4.9780 O.2   110  LYS110     -0.2718
     88  CB        34.3560   43.2560   -7.6610 C.3   110  LYS110      0.0285
     89  CG        34.3950   43.9180   -9.0360 C.3   110  LYS110      0.0035
     90  CD        33.0150   44.0340   -9.6500 C.3   110  LYS110      0.0206
     91  CE        33.0650   44.8150  -10.9490 C.3   110  LYS110      0.1093
     92  NZ        31.7000   44.9940  -11.5190 N.3   110  LYS110     -0.1314
     93  N         36.7050   42.1590   -5.0360 N.am  111  PHE111     -0.1976
     94  CA        36.7250   41.6160   -3.6850 C.3   111  PHE111      0.1639
     95  C         37.3680   42.6140   -2.7330 C.2   111  PHE111      0.2290
     96  O         36.7140   43.1220   -1.8210 O.2   111  PHE111     -0.2864
     97  CB        37.5020   40.3000   -3.6370 C.3   111  PHE111      0.0560
     98  CG        37.6510   39.7470   -2.2480 C.ar  111  PHE111     -0.0200
     99  CD1       36.5340   39.5560   -1.4420 C.ar  111  PHE111     -0.0042
    100  CD2       38.9070   39.4380   -1.7380 C.ar  111  PHE111     -0.0042
    101  CE1       36.6670   39.0640   -0.1390 C.ar  111  PHE111     -0.0003
    102  CE2       39.0520   38.9470   -0.4470 C.ar  111  PHE111     -0.0003
    103  CZ        37.9340   38.7600    0.3540 C.ar  111  PHE111     -0.0000
    104  N         38.8570   46.0480   -1.2500 N.3   113  ILE113     -0.1245
    105  CA        38.3170   47.4000   -1.2910 C.3   113  ILE113      0.1561
    106  C         39.4190   48.4390   -1.0910 C.2   113  ILE113      0.2260
    107  O         40.1380   48.4170   -0.0910 O.2   113  ILE113     -0.2867
    108  CB        37.2280   47.5770   -0.2050 C.3   113  ILE113      0.0252
    109  CG1       36.0570   46.6290   -0.4930 C.3   113  ILE113      0.0019
    110  CG2       36.7480   49.0170   -0.1640 C.3   113  ILE113      0.0019
    111  CD1       34.9910   46.5950    0.5960 C.3   113  ILE113      0.0001
    112  N         42.7220   46.1410    4.7490 N.3   118  TRP118     -0.1241
    113  CA        42.8100   44.7140    5.0260 C.3   118  TRP118      0.1605
    114  C         43.2720   44.0210    3.7490 C.2   118  TRP118      0.2264
    115  O         42.9790   44.4740    2.6350 O.2   118  TRP118     -0.2867
    116  CB        41.4970   44.1110    5.5570 C.3   118  TRP118      0.0550
    117  CG        40.2340   44.4130    4.8070 C.ar  118  TRP118      0.0003
    118  CD1       39.3430   45.4150    5.0750 C.ar  118  TRP118      0.0946
    119  CD2       39.6720   43.6540    3.7290 C.ar  118  TRP118      0.0152
    120  NE1       38.2580   45.3200    4.2370 N.ar  118  TRP118     -0.2442
    121  CE2       38.4340   44.2500    3.3990 C.ar  118  TRP118      0.0810
    122  CE3       40.0920   42.5250    3.0110 C.ar  118  TRP118      0.0012
    123  CZ2       37.6090   43.7570    2.3800 C.ar  118  TRP118      0.0191
    124  CZ3       39.2660   42.0320    1.9940 C.ar  118  TRP118      0.0001
    125  CH2       38.0400   42.6520    1.6920 C.ar  118  TRP118      0.0015
    126  N         41.0050   37.5750    4.3600 N.3   121  ILE121     -0.1245
    127  CA        39.7170   37.3350    4.9950 C.3   121  ILE121      0.1561
    128  C         39.7640   36.0760    5.8560 C.2   121  ILE121      0.2260
    129  O         40.3610   35.0700    5.4670 O.2   121  ILE121     -0.2867
    130  CB        38.6080   37.1810    3.9120 C.3   121  ILE121      0.0252
    131  CG1       37.2460   36.9260    4.5650 C.3   121  ILE121      0.0019
    132  CG2       38.9750   36.0430    2.9460 C.3   121  ILE121      0.0019
    133  CD1       36.0840   36.9100    3.5660 C.3   121  ILE121      0.0001
    134  N         26.2390   37.7290    9.3830 N.3   219  ASP219     -0.1225
    135  CA        27.4740   37.9030    8.6310 C.3   219  ASP219      0.1805
    136  C         28.1510   39.2340    8.9350 C.2   219  ASP219      0.2598
    137  O         27.7270   40.2860    8.4500 O.2   219  ASP219     -0.2718
    138  CB        27.1720   37.7890    7.1260 C.3   219  ASP219      0.1424
    139  CG        28.4070   37.9800    6.2500 C.2   219  ASP219      0.3668
    140  OD1       29.5340   37.9790    6.7790 O.co2 219  ASP219     -0.2456
    141  OD2       28.2460   38.1200    5.0190 O.co2 219  ASP219     -0.2456
    142  N         29.2170   39.1740    9.7300 N.am  220  SER220     -0.1938
    143  CA        29.9920   40.3590   10.0890 C.3   220  SER220      0.2055
    144  C         30.6640   40.9670    8.8500 C.2   220  SER220      0.2644
    145  O         31.1300   42.1080    8.8860 O.2   220  SER220     -0.2714
    146  CB        31.0690   39.9910   11.1110 C.3   220  SER220      0.2130
    147  OG        31.9940   39.0710   10.5550 O.3   220  SER220     -0.2179
    148  N         30.7150   40.1940    7.7670 N.am  221  GLY221     -0.1939
    149  CA        31.3250   40.6480    6.5290 C.3   221  GLY221      0.2014
    150  C         30.3660   41.2820    5.5300 C.2   221  GLY221      0.2640
    151  O         30.7450   41.5400    4.3860 O.2   221  GLY221     -0.2714
    152  N         29.1200   41.5090    5.9430 N.am  222  THR222     -0.1936
    153  CA        28.1300   42.1640    5.0840 C.3   222  THR222      0.2028
    154  C         27.7950   43.4740    5.7860 C.2   222  THR222      0.2643
    155  O         27.5850   43.4890    6.9990 O.2   222  THR222     -0.2714
    156  CB        26.8500   41.3120    4.9280 C.3   222  THR222      0.1808
    157  OG1       27.1160   40.2100    4.0510 O.3   222  THR222     -0.2208
    158  CG2       25.7090   42.1460    4.3390 C.3   222  THR222      0.0379
    159  N         27.7540   44.5750    5.0380 N.am  223  THR223     -0.1936
    160  CA        27.4770   45.8750    5.6410 C.3   223  THR223      0.2028
    161  C         26.0470   46.0740    6.1420 C.2   223  THR223      0.2642
    162  O         25.8300   46.4360    7.2970 O.2   223  THR223     -0.2714
    163  CB        27.7280   46.9350    4.4570 C.3   223  THR223      0.1808
    164  OG1       29.0250   46.7480    3.8810 O.3   223  THR223     -0.2208
    165  CG2       27.6830   48.3100    5.0680 C.3   223  THR223      0.0379
    166  N         25.0810   45.8190    5.2670 N.am  224  ASN224     -0.1971
    167  CA        23.6630   46.0270    5.5380 C.3   224  ASN224      0.1688
    168  C         22.8780   44.9380    6.2470 C.2   224  ASN224      0.2292
    169  O         23.3820   43.8580    6.5660 O.2   224  ASN224     -0.2864
    170  CB        22.9180   46.2580    4.2180 C.3   224  ASN224      0.1181
    171  CG        23.4400   47.4370    3.4280 C.2   224  ASN224      0.2629
    172  OD1       24.3520   48.1450    3.8560 O.2   224  ASN224     -0.2716
    173  ND2       22.8480   47.6540    2.2560 N.am  224  ASN224     -0.0877
    174  N         20.1930   42.8530    5.1250 N.3   226  ARG226     -0.1245
    175  CA        19.5680   42.5130    3.8550 C.3   226  ARG226      0.1563
    176  C         18.3280   41.6650    4.1150 C.2   226  ARG226      0.2260
    177  O         18.3400   40.7670    4.9590 O.2   226  ARG226     -0.2867
    178  CB        20.5710   41.7840    2.9540 C.3   226  ARG226      0.0307
    179  CG        21.8750   42.5680    2.7730 C.3   226  ARG226      0.0489
    180  CD        22.8250   41.8680    1.8280 C.3   226  ARG226      0.2205
    181  NE        22.3470   41.9160    0.4480 N.pl3 226  ARG226     -0.0865
    182  CZ        22.5030   40.9280   -0.4300 C.cat 226  ARG226      0.5346
    183  NH1       23.1220   39.8080   -0.0710 N.pl3 226  ARG226      0.1354
    184  NH2       22.0360   41.0520   -1.6640 N.pl3 226  ARG226      0.1354
    185  N         23.8690   54.4280    7.4300 N.3   298  ARG298     -0.1301
    186  CA        25.3260   54.4700    7.4190 C.3   298  ARG298      0.1248
    187  C         26.0990   55.7690    6.9130 C.3   298  ARG298      0.2009
    188  O         25.7000   56.1790    5.7840 O.3   298  ARG298     -0.2188
    189  CB        25.8940   53.1660    6.8450 C.3   298  ARG298      0.0254
    190  CG        25.5250   51.9150    7.6380 C.3   298  ARG298      0.0485
    191  CD        26.0580   50.6530    6.9690 C.3   298  ARG298      0.2205
    192  NE        27.5190   50.5800    6.9690 N.pl3 298  ARG298     -0.0865
    193  CZ        28.2610   50.2520    8.0250 C.cat 298  ARG298      0.5346
    194  NH1       29.5840   50.2160    7.9260 N.pl3 298  ARG298      0.1354
    195  NH2       27.6870   49.9490    9.1790 N.pl3 298  ARG298      0.1354
    196  N         18.6480   46.7270    2.6680 N.3   316  SER316     -0.1202
    197  CA        18.4690   46.4710    1.2440 C.3   316  SER316      0.2020
    198  C         17.8900   45.0960    0.9650 C.2   316  SER316      0.2618
    199  O         17.7350   44.2860    1.8780 O.2   316  SER316     -0.2717
    200  CB        19.8100   46.6230    0.5220 C.3   316  SER316      0.2103
    201  OG        20.7800   45.7430    1.0630 O.3   316  SER316     -0.2182
    202  N         17.5710   44.8260   -0.2970 N.am  317  GLN317     -0.1979
    203  CA        16.9790   43.5380   -0.6340 C.3   317  GLN317      0.1601
    204  C         17.9820   42.4350   -0.9220 C.2   317  GLN317      0.2287
    205  O         19.1460   42.6850   -1.2380 O.2   317  GLN317     -0.2864
    206  CB        16.0020   43.6730   -1.8090 C.3   317  GLN317      0.0394
    207  CG        16.6090   44.0900   -3.1270 C.3   317  GLN317      0.0908
    208  CD        15.6460   43.8760   -4.2860 C.2   317  GLN317      0.2608
    209  OE1       14.4860   44.2870   -4.2300 O.2   317  GLN317     -0.2717
    210  NE2       16.1260   43.2280   -5.3420 N.am  317  GLN317     -0.0878
    211  N         26.5930   44.1550    9.4780 N.3   326  ALA326     -0.1245
    212  CA        27.0790   45.1790   10.4000 C.3   326  ALA326      0.1562
    213  C         25.9680   46.0780   10.9480 C.2   326  ALA326      0.2260
    214  O         26.0240   46.4910   12.1050 O.2   326  ALA326     -0.2867
    215  CB        28.1650   46.0270    9.7160 C.3   326  ALA326      0.0290
@<TRIPOS>BOND
     1    92    91    1
     2    91    90    1
     3    90    89    1
     4    89    88    1
     5    84    85    1
     6    88    85    1
     7    85    86    1
     8    86    93   am
     9    86    87    2
    10   210   208   am
    11    93    94    1
    12    82    81    2
    13    71    70    2
    14    59    58    2
    15   208   209    2
    16   208   207    1
    17    77    76    1
    18    77    78    2
    19    56    57    1
    20    81    83   am
    21    81    80    1
    22    76    75    1
    23    76    79    1
    24    94    97    1
    25    94    95    1
    26    70    75   am
    27    70    69    1
    28    97    98    1
    29    58    57    1
    30    58    68   am
    31    80    79    1
    32   207   206    1
    33    69    68    1
    34    69    72    1
    35    57    60    1
    36    95    96    2
    37    98   100   ar
    38    98    99   ar
    39    74    72    1
    40    60    61    1
    41   206   203    1
    42   100   102   ar
    43    72    73    1
    44   184   182    1
    45    99   101   ar
    46    63    61   ar
    47    63    65   ar
    48   105   104    1
    49   105   106    1
    50   105   108    1
    51   205   204    2
    52    61    62   ar
    53   106   107    2
    54   204   203    1
    55    65    66   ar
    56   203   202    1
    57   109   108    1
    58   109   111    1
    59   102   103   ar
    60   182   183    1
    61   182   181    2
    62   202   198   am
    63    62    64   ar
    64   108   110    1
    65   101   103   ar
    66    66    64   ar
    67    66    67    1
    68   181   180    1
    69   200   201    1
    70   200   197    1
    71   198   197    1
    72   198   199    2
    73   197   196    1
    74    12    11    2
    75   125   124   ar
    76   125   123   ar
    77   180   179    1
    78   124   122   ar
    79   173   171   am
    80   123   121   ar
    81   115   114    2
    82    11    10    1
    83    11    13   am
    84   179   178    1
    85   132   130    1
    86   178   175    1
    87   122   119   ar
    88    10     9    1
    89   121   119   ar
    90   121   120   ar
    91   171   172    2
    92   171   170    1
    93   133   131    1
    94   119   117   ar
    95     4     3    2
    96   114   113    1
    97   175   176    1
    98   175   174    1
    99    54    55    1
   100    54    51    1
   101   164   163    1
   102   130   131    1
   103   130   127    1
   104   157   156    1
   105   176   177    2
   106     9     6    1
   107   170   167    1
   108   120   118   ar
   109   158   156    1
   110   126   127    1
   111    49    48    2
   112   151   150    2
   113     8     7    2
   114   163   165    1
   115   163   160    1
   116     6     7    1
   117     6     5    1
   118   112   113    1
   119   117   118   ar
   120   117   116    1
   121    51    50    1
   122    51    52    1
   123     3     5   am
   124     3     2    1
   125   156   153    1
   126    37    35    1
   127   127   128    1
   128   141   139   ar
   129   113   116    1
   130   159   160    1
   131   159   154   am
   132   153   154    1
   133   153   152    1
   134     7    14   am
   135   166   167    1
   136   166   161   am
   137    44    43   ar
   138    48    50   am
   139    48    47    1
   140   129   128    2
   141   150   152   am
   142   150   149    1
   143   167   168    1
   144    45    43   ar
   145   160   161    1
   146    52    53    2
   147     2     1    1
   148   188   187    1
   149   154   155    2
   150    43    42    1
   151   161   162    2
   152    34    35    1
   153    34    31    1
   154   168   169    2
   155   139   140   ar
   156   139   138    1
   157    35    36    1
   158    47    46    1
   159    14    15    1
   160   149   148    1
   161    42    39    1
   162   189   186    1
   163   189   190    1
   164   187   186    1
   165   192   191    1
   166   192   193    2
   167   191   190    1
   168    15    16    1
   169   138   135    1
   170    30    31    1
   171   186   185    1
   172    31    32    1
   173   148   144   am
   174   194   193    1
   175   193   195    1
   176    33    32    2
   177    16    17    2
   178    16    18   am
   179    39    40    1
   180    39    38    1
   181   137   136    2
   182    41    40    2
   183   135   136    1
   184   135   134    1
   185   144   145    2
   186   144   143    1
   187   136   142   am
   188    18    19    1
   189   211   212    1
   190   215   212    1
   191   142   143    1
   192    21    20    2
   193   143   146    1
   194    20    19    1
   195   212   213    1
   196    19    22    1
   197   147   146    1
   198   213   214    2
   199    24    26   ar
   200    24    23   ar
   201    26    28   ar
   202    22    23    1
   203    23    25   ar
   204    28    29    1
   205    28    27   ar
   206    25    27   ar
