@<TRIPOS>MOLECULE
tmp/2qzrA00.pdb
 157 148 0 0 0
SMALL
GASTEIGER

@<TRIPOS>ATOM
      1  N          9.0310   11.6630   22.4030 N.3    92  ASP92      -0.1225
      2  CA         9.8860   12.6910   22.9830 C.3    92  ASP92       0.1805
      3  C          9.1080   13.2900   24.1570 C.2    92  ASP92       0.2598
      4  O          7.8870   13.1380   24.1350 O.2    92  ASP92      -0.2718
      5  CB        10.2730   13.7820   21.9950 C.3    92  ASP92       0.1424
      6  CG        11.4620   14.5970   22.4870 C.2    92  ASP92       0.3668
      7  OD1       11.9570   14.3170   23.6070 O.co2  92  ASP92      -0.2456
      8  OD2       11.8780   15.5070   21.7380 O.co2  92  ASP92      -0.2456
      9  N          9.7650   13.9130   25.1090 N.am   93  SER93      -0.1952
     10  CA         9.1610   14.3320   26.3710 C.3    93  SER93       0.1924
     11  C          8.5440   15.7200   26.2990 C.2    93  SER93       0.2314
     12  O          7.8160   16.1270   27.2010 O.2    93  SER93      -0.2863
     13  CB        10.2330   14.2670   27.4700 C.3    93  SER93       0.2116
     14  OG        11.2030   15.2790   27.2170 O.3    93  SER93      -0.2180
     15  N         12.2190   19.6200   23.9910 N.3    96  TYR96      -0.1227
     16  CA        12.8630   20.3460   22.9010 C.3    96  TYR96       0.1736
     17  C         11.8210   21.1740   22.1580 C.2    96  TYR96       0.2595
     18  O         12.1020   22.2690   21.6760 O.2    96  TYR96      -0.2718
     19  CB        13.5980   19.3970   21.9500 C.3    96  TYR96       0.0548
     20  CG        14.0620   20.0340   20.6600 C.ar   96  TYR96      -0.0200
     21  CD1       15.2650   20.7280   20.5940 C.ar   96  TYR96      -0.0009
     22  CD2       13.3070   19.9450   19.4930 C.ar   96  TYR96      -0.0009
     23  CE1       15.6870   21.3120   19.4120 C.ar   96  TYR96       0.0417
     24  CE2       13.7130   20.5250   18.3080 C.ar   96  TYR96       0.0417
     25  CZ        14.9120   21.2080   18.2760 C.ar   96  TYR96       0.1957
     26  OH        15.3210   21.7850   17.0940 O.3    96  TYR96      -0.2866
     27  N         10.6220   20.6150   22.0690 N.am   97  GLN97      -0.1979
     28  CA         9.5580   21.1960   21.2580 C.3    97  GLN97       0.1601
     29  C          8.9690   22.4420   21.8960 C.2    97  GLN97       0.2287
     30  O          8.6410   23.4060   21.2040 O.2    97  GLN97      -0.2864
     31  CB         8.4710   20.1520   21.0200 C.3    97  GLN97       0.0394
     32  CG         8.4250   19.5840   19.6170 C.3    97  GLN97       0.0908
     33  CD         9.5670   18.6320   19.3310 C.2    97  GLN97       0.2608
     34  OE1       10.1480   18.0650   20.2570 O.2    97  GLN97      -0.2717
     35  NE2        9.8830   18.4470   18.0520 N.am   97  GLN97      -0.0878
     36  N         13.1560   17.0720   29.9830 N.3   133  ASP133     -0.1239
     37  CA        14.3990   17.7780   30.1390 C.3   133  ASP133      0.1674
     38  C         14.2380   19.2040   29.6080 C.2   133  ASP133      0.2266
     39  O         13.1540   19.4950   29.0970 O.2   133  ASP133     -0.2867
     40  CB        15.5270   17.0850   29.3810 C.3   133  ASP133      0.1410
     41  CG        15.2790   17.1230   27.8830 C.2   133  ASP133      0.3668
     42  OD1       14.0970   17.2180   27.4860 O.co2 133  ASP133     -0.2456
     43  OD2       16.2560   17.0580   27.1050 O.co2 133  ASP133     -0.2456
     44  N         16.1850   21.1270   26.8960 N.3   135  CYS135     -0.1235
     45  CA        17.1860   21.0350   25.8320 C.3   135  CYS135      0.1677
     46  C         18.1230   22.2410   25.9010 C.2   135  CYS135      0.2270
     47  O         17.6980   23.3930   26.0240 O.2   135  CYS135     -0.2867
     48  CB        16.5390   20.9200   24.4540 C.3   135  CYS135      0.0956
     49  SG        17.7350   21.0870   23.0950 S.3   135  CYS135     -0.0801
     50  N         17.9020   11.7040   29.7960 N.3   178  ILE178     -0.1245
     51  CA        18.5910   12.4240   28.7240 C.3   178  ILE178      0.1561
     52  C         19.8020   13.1520   29.2730 C.2   178  ILE178      0.2260
     53  O         19.7610   13.9800   30.1760 O.2   178  ILE178     -0.2867
     54  CB        17.6430   13.3960   27.9900 C.3   178  ILE178      0.0252
     55  CG1       16.3170   12.7820   27.5740 C.3   178  ILE178      0.0019
     56  CG2       18.3710   13.9900   26.7920 C.3   178  ILE178      0.0019
     57  CD1       15.2680   13.6430   26.9310 C.3   178  ILE178      0.0001
     58  N         22.5480   15.9430   28.9860 N.3   180  GLN180     -0.1245
     59  CA        22.7770   17.3240   28.6690 C.3   180  GLN180      0.1566
     60  C         24.1970   17.6740   29.1060 C.2   180  GLN180      0.2260
     61  O         24.9550   16.7580   29.4520 O.2   180  GLN180     -0.2867
     62  CB        21.7170   18.1940   29.3470 C.3   180  GLN180      0.0367
     63  CG        20.3060   17.8860   28.8570 C.3   180  GLN180      0.0905
     64  CD        20.1720   18.1480   27.3710 C.2   180  GLN180      0.2608
     65  OE1       21.1200   18.6460   26.7640 O.2   180  GLN180     -0.2717
     66  NE2       19.0150   17.8180   26.8150 N.am  180  GLN180     -0.0878
     67  N         21.4590   10.9820   24.2800 N.3   205  VAL205     -0.1231
     68  CA        22.2940   12.1730   24.2690 C.3   205  VAL205      0.1692
     69  C         21.4540   13.3280   23.7550 C.2   205  VAL205      0.2593
     70  O         21.0860   13.3820   22.5830 O.2   205  VAL205     -0.2718
     71  CB        23.5300   11.9950   23.3880 C.3   205  VAL205      0.0266
     72  CG1       24.3880   13.2450   23.4300 C.3   205  VAL205      0.0020
     73  CG2       24.2970   10.7700   23.8520 C.3   205  VAL205      0.0020
     74  N         21.1290   14.2670   24.6410 N.am  206  GLY206     -0.1942
     75  CA        20.3820   15.4140   24.1200 C.3   206  GLY206      0.2014
     76  C         21.3410   16.5570   23.8590 C.2   206  GLY206      0.2639
     77  O         22.5270   16.5140   24.1830 O.2   206  GLY206     -0.2714
     78  N         20.8440   17.6400   23.2640 N.am  207  GLY207     -0.1939
     79  CA        21.7570   18.7770   23.1430 C.3   207  GLY207      0.2014
     80  C         22.6060   18.7010   21.8980 C.2   207  GLY207      0.2639
     81  O         23.4290   19.5780   21.6430 O.2   207  GLY207     -0.2714
     82  N         22.4410   17.6680   21.0700 N.am  208  LEU208     -0.1963
     83  CA        23.2140   17.6520   19.8210 C.3   208  LEU208      0.1728
     84  C         22.2810   17.7640   18.6280 C.2   208  LEU208      0.2616
     85  O         21.0540   17.7400   18.7320 O.2   208  LEU208     -0.2715
     86  CB        24.1080   16.4130   19.7400 C.3   208  LEU208      0.0311
     87  CG        25.2430   16.3480   20.7710 C.3   208  LEU208      0.0022
     88  CD1       25.9000   14.9750   20.7800 C.3   208  LEU208      0.0001
     89  CD2       26.2860   17.4260   20.5020 C.3   208  LEU208      0.0001
     90  N         22.8460   17.9160   17.4350 N.am  209  ALA209     -0.1963
     91  CA        21.9860   18.2630   16.3070 C.3   209  ALA209      0.1728
     92  C         21.3180   19.6070   16.6360 C.2   209  ALA209      0.2616
     93  O         20.1200   19.7540   16.4280 O.2   209  ALA209     -0.2715
     94  CB        20.9600   17.1970   15.9890 C.3   209  ALA209      0.0334
     95  N         22.1430   20.5080   17.1380 N.am  210  VAL210     -0.1963
     96  CA        21.8780   21.8850   17.4860 C.3   210  VAL210      0.1727
     97  C         22.6450   22.8710   16.6040 C.2   210  VAL210      0.2616
     98  O         22.9420   23.9670   17.0880 O.2   210  VAL210     -0.2715
     99  CB        22.3140   22.2120   18.9310 C.3   210  VAL210      0.0290
    100  CG1       21.4580   21.4660   19.9370 C.3   210  VAL210      0.0023
    101  CG2       23.7940   21.8840   19.1130 C.3   210  VAL210      0.0023
    102  N         22.9540   22.4710   15.3790 N.am  211  GLY211     -0.1955
    103  CA        23.8130   23.1960   14.4720 C.3   211  GLY211      0.1869
    104  C         25.2650   23.2400   14.9110 C.2   211  GLY211      0.2309
    105  O         25.9820   24.1980   14.6020 O.2   211  GLY211     -0.2863
    106  N         19.2890   11.8250   19.9110 N.3   237  MET237     -0.1230
    107  CA        18.0200   12.3940   19.4650 C.3   237  MET237      0.1702
    108  C         18.2070   13.3460   18.2830 C.2   237  MET237      0.2592
    109  O         19.1060   14.1830   18.2940 O.2   237  MET237     -0.2718
    110  CB        17.3390   13.1320   20.6090 C.3   237  MET237      0.0401
    111  CG        17.1930   12.2880   21.8660 C.3   237  MET237      0.0596
    112  SD        16.5450   13.2260   23.2690 S.3   237  MET237     -0.1393
    113  CE        14.7850   12.9760   22.9940 C.3   237  MET237      0.0692
    114  N         17.3330   13.1920   17.2910 N.am  238  GLY238     -0.1957
    115  CA        17.2330   14.1070   16.1840 C.3   238  GLY238      0.1869
    116  C         18.3570   13.9970   15.1990 C.2   238  GLY238      0.2309
    117  O         18.5560   14.8030   14.2930 O.2   238  GLY238     -0.2863
    118  N         16.5690    9.3140   15.5000 N.3   257  ASP257     -0.1225
    119  CA        15.2980    9.7410   14.9150 C.3   257  ASP257      0.1805
    120  C         15.5950   10.9480   14.0470 C.2   257  ASP257      0.2598
    121  O         16.4820   11.7380   14.3960 O.2   257  ASP257     -0.2718
    122  CB        14.2890   10.0680   16.0160 C.3   257  ASP257      0.1424
    123  CG        14.7420   11.3650   16.6780 C.2   257  ASP257      0.3668
    124  OD1       15.5430   11.3320   17.6280 O.co2 257  ASP257     -0.2456
    125  OD2       14.3000   12.4120   16.1730 O.co2 257  ASP257     -0.2456
    126  N         14.9070   11.1260   12.9230 N.am  258  CYS258     -0.1956
    127  CA        15.2300   12.3320   12.1570 C.3   258  CYS258      0.1843
    128  C         14.1400   12.6750   11.1630 C.2   258  CYS258      0.2625
    129  O         13.6210   11.7880   10.4810 O.2   258  CYS258     -0.2714
    130  CB        16.5480   12.1350   11.4050 C.3   258  CYS258      0.0997
    131  SG        17.2220   13.6590   10.7370 S.3   258  CYS258     -0.0797
    132  N         13.7940   13.9580   11.0640 N.am  259  VAL259     -0.1963
    133  CA        12.7130   14.2940   10.1410 C.3   259  VAL259      0.1727
    134  C         13.2220   14.3220    8.7020 C.2   259  VAL259      0.2616
    135  O         12.4450   14.4740    7.7640 O.2   259  VAL259     -0.2715
    136  CB        12.0730   15.6580   10.4360 C.3   259  VAL259      0.0290
    137  CG1       11.3180   15.6110   11.7550 C.3   259  VAL259      0.0023
    138  CG2       13.1340   16.7490   10.4360 C.3   259  VAL259      0.0023
    139  N         14.5200   14.1820    8.5700 N.am  260  LEU260     -0.1977
    140  CA        15.2120   14.3780    7.2880 C.3   260  LEU260      0.1596
    141  C         14.6930   13.5120    6.1560 C.2   260  LEU260      0.2287
    142  O         14.4110   14.0030    5.0470 O.2   260  LEU260     -0.2864
    143  CB        16.7010   14.1350    7.5360 C.3   260  LEU260      0.0297
    144  CG        17.7460   14.8460    6.6960 C.3   260  LEU260      0.0022
    145  CD1       18.7710   13.8170    6.2320 C.3   260  LEU260      0.0001
    146  CD2       17.1700   15.5860    5.5050 C.3   260  LEU260      0.0001
    147  N         10.9080   14.7500    5.4310 N.3   263  ARG263     -0.1245
    148  CA        10.7960   16.1440    4.9770 C.3   263  ARG263      0.1563
    149  C         11.6050   16.3800    3.7140 C.2   263  ARG263      0.2260
    150  O         11.1050   16.9360    2.7290 O.2   263  ARG263     -0.2867
    151  CB        11.2230   17.0790    6.1040 C.3   263  ARG263      0.0307
    152  CG        11.6200   18.4790    5.6740 C.3   263  ARG263      0.0489
    153  CD        12.2790   19.2430    6.8160 C.3   263  ARG263      0.2205
    154  NE        11.4080   19.2770    7.9930 N.pl3 263  ARG263     -0.0865
    155  CZ        11.7040   19.9400    9.1030 C.cat 263  ARG263      0.5346
    156  NH1       12.8490   20.6100    9.1640 N.pl3 263  ARG263      0.1354
    157  NH2       10.8680   19.9280   10.1300 N.pl3 263  ARG263      0.1354
@<TRIPOS>BOND
     1   150   149    2
     2   149   148    1
     3   148   147    1
     4   148   151    1
     5   142   141    2
     6   146   144    1
     7   152   151    1
     8   152   153    1
     9   141   140    1
    10   145   144    1
    11   144   143    1
    12   153   154    1
    13   140   143    1
    14   140   139    1
    15   135   134    2
    16   154   155    2
    17   139   134   am
    18   134   133    1
    19   155   156    1
    20   155   157    1
    21   133   136    1
    22   133   132    1
    23   136   138    1
    24   136   137    1
    25   129   128    2
    26   131   130    1
    27   132   128   am
    28   128   127    1
    29   130   127    1
    30   127   126    1
    31   126   120   am
    32   120   121    2
    33   120   119    1
    34   117   116    2
    35   103   104    1
    36   103   102    1
    37   105   104    2
    38   119   118    1
    39   119   122    1
    40   116   115    1
    41   102    97   am
    42    94    91    1
    43   122   123    1
    44   125   123   ar
    45   115   114    1
    46    91    92    1
    47    91    90    1
    48    93    92    2
    49    97    98    2
    50    97    96    1
    51    92    95   am
    52   123   124   ar
    53    26    25    1
    54    95    96    1
    55   114   108   am
    56    90    84   am
    57    96    99    1
    58    35    33   am
    59    25    24   ar
    60    25    23   ar
    61   108   109    2
    62   108   107    1
    63    24    22   ar
    64    84    85    2
    65    84    83    1
    66    99   101    1
    67    99   100    1
    68    33    32    1
    69    33    34    2
    70    23    21   ar
    71   107   106    1
    72   107   110    1
    73    22    20   ar
    74    32    31    1
    75    86    83    1
    76    86    87    1
    77    83    82    1
    78    89    87    1
    79    21    20   ar
    80   110   111    1
    81    20    19    1
    82    87    88    1
    83    31    28    1
    84    82    80   am
    85    30    29    2
    86    28    29    1
    87    28    27    1
    88    81    80    2
    89    18    17    2
    90     8     6   ar
    91   111   112    1
    92    80    79    1
    93    19    16    1
    94     5     6    1
    95     5     2    1
    96    27    17   am
    97    17    16    1
    98     1     2    1
    99     6     7   ar
   100    70    69    2
   101    16    15    1
   102     2     3    1
   103   113   112    1
   104    49    48    1
   105    79    78    1
   106    78    76   am
   107    71    72    1
   108    71    73    1
   109    71    68    1
   110    69    68    1
   111    69    74   am
   112    76    75    1
   113    76    77    2
   114    75    74    1
   115     4     3    2
   116     3     9   am
   117    68    67    1
   118    48    45    1
   119     9    10    1
   120    45    46    1
   121    45    44    1
   122    46    47    2
   123    11    10    1
   124    11    12    2
   125    10    13    1
   126    65    64    2
   127    56    54    1
   128    66    64   am
   129    57    55    1
   130    43    41   ar
   131    14    13    1
   132    64    63    1
   133    42    41   ar
   134    55    54    1
   135    41    40    1
   136    54    51    1
   137    59    58    1
   138    59    60    1
   139    59    62    1
   140    51    52    1
   141    51    50    1
   142    63    62    1
   143    39    38    2
   144    60    61    2
   145    52    53    2
   146    40    37    1
   147    38    37    1
   148    36    37    1
