@<TRIPOS>MOLECULE
tmp/2qzyB00.pdb
 126 119 0 0 0
SMALL
GASTEIGER

@<TRIPOS>ATOM
      1  N         27.3620  -45.7800   -2.7470 N.3    71  ALA71      -0.1231
      2  CA        27.0050  -46.2000   -1.3890 C.3    71  ALA71       0.1694
      3  C         25.6590  -46.9200   -1.3370 C.2    71  ALA71       0.2591
      4  O         24.8610  -46.8250   -2.2700 O.2    71  ALA71      -0.2718
      5  CB        26.9850  -44.9960   -0.4570 C.3    71  ALA71       0.0304
      6  N         25.4270  -47.6500   -0.2400 N.am   72  ARG72      -0.1980
      7  CA        24.0850  -48.0900    0.1590 C.3    72  ARG72       0.1597
      8  C         23.1140  -46.9270    0.0840 C.2    72  ARG72       0.2287
      9  O         23.4350  -45.8340    0.5540 O.2    72  ARG72      -0.2864
     10  CB        24.0780  -48.5330    1.6320 C.3    72  ARG72       0.0334
     11  CG        24.5140  -49.9190    1.9120 C.3    72  ARG72       0.0492
     12  CD        24.0640  -50.3240    3.3240 C.3    72  ARG72       0.2205
     13  NE        24.7000  -49.5640    4.4010 N.pl3  72  ARG72      -0.0865
     14  CZ        24.1140  -48.6090    5.1220 C.cat  72  ARG72       0.5346
     15  NH1       22.8570  -48.2340    4.8790 N.pl3  72  ARG72       0.1354
     16  NH2       24.8020  -48.0060    6.0860 N.pl3  72  ARG72       0.1354
     17  N         26.8340  -51.4210   -6.3790 N.3   221  TYR221     -0.1227
     18  CA        27.7050  -51.0650   -5.2740 C.3   221  TYR221      0.1736
     19  C         27.4480  -51.8410   -3.9940 C.2   221  TYR221      0.2596
     20  O         26.3130  -51.9290   -3.5220 O.2   221  TYR221     -0.2718
     21  CB        27.6450  -49.5530   -4.9730 C.3   221  TYR221      0.0548
     22  CG        28.8680  -49.0620   -4.2100 C.ar  221  TYR221     -0.0200
     23  CD1       29.9960  -48.5960   -4.8960 C.ar  221  TYR221     -0.0009
     24  CD2       28.9140  -49.0910   -2.8140 C.ar  221  TYR221     -0.0009
     25  CE1       31.1350  -48.1510   -4.2140 C.ar  221  TYR221      0.0417
     26  CE2       30.0640  -48.6520   -2.1140 C.ar  221  TYR221      0.0417
     27  CZ        31.1660  -48.1890   -2.8240 C.ar  221  TYR221      0.1957
     28  OH        32.2960  -47.7390   -2.1650 O.3   221  TYR221     -0.2866
     29  N         28.5320  -52.4010   -3.4620 N.am  222  GLY222     -0.1942
     30  CA        28.6250  -52.8570   -2.0830 C.3   222  GLY222      0.2014
     31  C         27.3550  -53.3620   -1.4370 C.2   222  GLY222      0.2639
     32  O         26.8510  -54.4100   -1.8070 O.2   222  GLY222     -0.2714
     33  N         26.8550  -52.6120   -0.4630 N.am  223  GLY223     -0.1954
     34  CA        25.7210  -53.0380    0.3540 C.3   223  GLY223      0.1869
     35  C         24.4450  -53.2310   -0.4420 C.2   223  GLY223      0.2309
     36  O         23.5420  -53.9150    0.0190 O.2   223  GLY223     -0.2863
     37  N         26.0700  -59.4470    2.1920 N.3   229  LYS229     -0.1231
     38  CA        26.6960  -58.4950    3.1250 C.3   229  LYS229      0.1693
     39  C         25.7550  -57.9180    4.1960 C.2   229  LYS229      0.2591
     40  O         25.9960  -58.0960    5.3980 O.2   229  LYS229     -0.2718
     41  CB        27.3730  -57.3740    2.3150 C.3   229  LYS229      0.0285
     42  CG        28.0540  -56.2730    3.1380 C.3   229  LYS229      0.0035
     43  CD        29.5320  -56.5370    3.3140 C.3   229  LYS229      0.0206
     44  CE        30.0520  -55.8850    4.5810 C.3   229  LYS229      0.1093
     45  NZ        29.9260  -56.8360    5.7120 N.3   229  LYS229     -0.1314
     46  N         24.6880  -57.2460    3.7700 N.am  230  LYS230     -0.1980
     47  CA        23.7160  -56.6440    4.7030 C.3   230  LYS230      0.1596
     48  C         22.3090  -57.1790    4.4900 C.2   230  LYS230      0.2287
     49  O         21.5840  -57.4340    5.4510 O.2   230  LYS230     -0.2864
     50  CB        23.6810  -55.1090    4.5630 C.3   230  LYS230      0.0298
     51  CG        25.0060  -54.3880    4.8260 C.3   230  LYS230      0.0038
     52  CD        25.4550  -54.5100    6.2690 C.3   230  LYS230      0.0206
     53  CE        26.7390  -53.7300    6.4730 C.3   230  LYS230      0.1093
     54  NZ        27.1940  -53.7760    7.8970 N.3   230  LYS230     -0.1314
     55  N         24.9390  -56.9010   13.9340 N.3   250  HIS250     -0.1241
     56  CA        25.9600  -56.0490   13.3340 C.3   250  HIS250      0.1621
     57  C         27.0650  -55.8870   14.3710 C.2   250  HIS250      0.2264
     58  O         27.1690  -54.8550   15.0530 O.2   250  HIS250     -0.2867
     59  CB        25.3260  -54.6910   13.0050 C.3   250  HIS250      0.0745
     60  CG        26.1670  -53.8090   12.1360 C.ar  250  HIS250      0.0817
     61  ND1       26.0180  -52.4380   12.1200 N.ar  250  HIS250     -0.2268
     62  CD2       27.1560  -54.0910   11.2510 C.ar  250  HIS250      0.1154
     63  CE1       26.8590  -51.9140   11.2450 C.ar  250  HIS250      0.1986
     64  NE2       27.5630  -52.8950   10.7080 N.ar  250  HIS250     -0.2212
     65  N         28.5800  -46.2690   12.9010 N.3   272  SER272     -0.1217
     66  CA        29.6460  -45.8000   12.0200 C.3   272  SER272      0.1889
     67  C         30.5040  -44.7060   12.6820 C.2   272  SER272      0.2288
     68  O         30.0350  -43.9950   13.5850 O.2   272  SER272     -0.2866
     69  CB        29.0520  -45.3160   10.6990 C.3   272  SER272      0.2089
     70  OG        27.9190  -44.5030   10.9280 O.3   272  SER272     -0.2183
     71  N         32.3450  -57.2490   11.2140 N.3   297  ASP297     -0.1239
     72  CA        31.0800  -56.6380   10.7640 C.3   297  ASP297      0.1674
     73  C         29.8000  -57.3380   11.2430 C.2   297  ASP297      0.2266
     74  O         28.9230  -56.6830   11.8010 O.2   297  ASP297     -0.2867
     75  CB        31.0420  -56.4840    9.2480 C.3   297  ASP297      0.1410
     76  CG        29.9910  -55.4720    8.7920 C.2   297  ASP297      0.3668
     77  OD1       29.8890  -54.3840    9.4090 O.co2 297  ASP297     -0.2456
     78  OD2       29.2710  -55.7580    7.8120 O.co2 297  ASP297     -0.2456
     79  N         35.0340  -55.9630    3.7120 N.3   319  PHE319     -0.1241
     80  CA        34.6140  -54.9330    2.7760 C.3   319  PHE319      0.1605
     81  C         34.6610  -53.6170    3.5460 C.2   319  PHE319      0.2264
     82  O         33.6540  -53.1680    4.1270 O.2   319  PHE319     -0.2867
     83  CB        33.2060  -55.2280    2.2520 C.3   319  PHE319      0.0534
     84  CG        32.7470  -54.2810    1.1750 C.ar  319  PHE319     -0.0203
     85  CD1       33.3180  -54.3210   -0.0950 C.ar  319  PHE319     -0.0042
     86  CD2       31.7140  -53.3850    1.4250 C.ar  319  PHE319     -0.0042
     87  CE1       32.8820  -53.4440   -1.0960 C.ar  319  PHE319     -0.0003
     88  CE2       31.2760  -52.5100    0.4450 C.ar  319  PHE319     -0.0003
     89  CZ        31.8640  -52.5450   -0.8280 C.ar  319  PHE319     -0.0000
     90  N         35.9680  -49.5750    4.5940 N.3   321  VAL321     -0.1245
     91  CA        36.1690  -48.2030    4.1490 C.3   321  VAL321      0.1561
     92  C         37.6710  -47.9960    4.0800 C.2   321  VAL321      0.2260
     93  O         38.3920  -48.3170    5.0370 O.2   321  VAL321     -0.2867
     94  CB        35.5180  -47.2030    5.1390 C.3   321  VAL321      0.0252
     95  CG1       35.7680  -45.7620    4.7280 C.3   321  VAL321      0.0019
     96  CG2       34.0140  -47.4780    5.2420 C.3   321  VAL321      0.0019
     97  N         33.5210  -43.0170    0.8430 N.3   389  ASN389     -0.1240
     98  CA        32.9950  -44.3650    1.0770 C.3   389  ASN389      0.1653
     99  C         33.7330  -45.4430    0.2840 C.2   389  ASN389      0.2266
    100  O         33.2530  -46.5720    0.1710 O.2   389  ASN389     -0.2867
    101  CB        31.4890  -44.4230    0.7770 C.3   389  ASN389      0.1155
    102  CG        30.8180  -45.6710    1.3610 C.2   389  ASN389      0.2627
    103  OD1       31.0720  -46.0530    2.5170 O.2   389  ASN389     -0.2716
    104  ND2       29.9570  -46.3110    0.5640 N.am  389  ASN389     -0.0877
    105  N         36.3450  -48.3860   -0.8620 N.3   391  ARG391     -0.1245
    106  CA        36.3980  -49.6800   -0.1750 C.3   391  ARG391      0.1563
    107  C         37.6080  -50.5200   -0.5840 C.2   391  ARG391      0.2260
    108  O         38.1120  -50.4140   -1.7100 O.2   391  ARG391     -0.2867
    109  CB        35.1090  -50.4780   -0.4660 C.3   391  ARG391      0.0307
    110  CG        33.8100  -49.8340    0.0430 C.3   391  ARG391      0.0489
    111  CD        33.6570  -49.9750    1.5540 C.3   391  ARG391      0.2205
    112  NE        32.5570  -49.1730    2.1050 N.pl3 391  ARG391     -0.0865
    113  CZ        31.8300  -49.5270    3.1600 C.cat 391  ARG391      0.5346
    114  NH1       32.0500  -50.6900    3.7690 N.pl3 391  ARG391      0.1354
    115  NH2       30.8650  -48.7260    3.6010 N.pl3 391  ARG391      0.1354
    116  N         19.3930  -51.6070    9.3180 N.3   460  PHE460     -0.1241
    117  CA        19.5050  -53.0410    9.0150 C.3   460  PHE460      0.1605
    118  C         18.4280  -53.9480    9.6280 C.2   460  PHE460      0.2264
    119  O         18.5300  -55.1720    9.5170 O.2   460  PHE460     -0.2867
    120  CB        20.8930  -53.5570    9.4250 C.3   460  PHE460      0.0534
    121  CG        22.0360  -52.7490    8.8620 C.ar  460  PHE460     -0.0203
    122  CD1       22.2170  -52.6390    7.4770 C.ar  460  PHE460     -0.0042
    123  CD2       22.9240  -52.0930    9.7130 C.ar  460  PHE460     -0.0042
    124  CE1       23.2770  -51.8870    6.9400 C.ar  460  PHE460     -0.0003
    125  CE2       23.9780  -51.3440    9.2020 C.ar  460  PHE460     -0.0003
    126  CZ        24.1620  -51.2410    7.7950 C.ar  460  PHE460     -0.0000
@<TRIPOS>BOND
     1    17    18    1
     2    18    21    1
     3    18    19    1
     4    21    22    1
     5    23    25   ar
     6    23    22   ar
     7    25    27   ar
     8    22    24   ar
     9    19    20    2
    10    19    29   am
    11    29    30    1
    12    27    28    1
    13    27    26   ar
    14    24    26   ar
    15     1     2    1
    16     4     3    2
    17    30    31    1
    18    32    31    2
    19   108   107    2
    20    31    33   am
    21     2     3    1
    22     2     5    1
    23     3     6   am
    24    87    89   ar
    25    87    85   ar
    26   105   106    1
    27    89    88   ar
    28   107   106    1
    29   109   106    1
    30   109   110    1
    31    33    34    1
    32    35    36    2
    33    35    34    1
    34     6     7    1
    35    85    84   ar
    36   110   111    1
    37     8     7    1
    38     8     9    2
    39     7    10    1
    40   100    99    2
    41    99    98    1
    42    88    86   ar
    43   104   102   am
    44   101    98    1
    45   101   102    1
    46    97    98    1
    47    84    86   ar
    48    84    83    1
    49   102   103    2
    50   111   112    1
    51    10    11    1
    52    11    12    1
    53   112   113    2
    54    37    38    1
    55    83    80    1
    56    41    38    1
    57    41    42    1
    58    80    81    1
    59    80    79    1
    60    38    39    1
    61    42    43    1
    62   113   115    1
    63   113   114    1
    64    43    44    1
    65    12    13    1
    66    81    82    2
    67    46    39   am
    68    46    47    1
    69    92    91    1
    70    92    93    2
    71    91    90    1
    72    91    94    1
    73    39    40    2
    74    13    14    2
    75    48    47    1
    76    48    49    2
    77    50    47    1
    78    50    51    1
    79    44    45    1
    80    95    94    1
    81    51    52    1
    82    15    14    1
    83    14    16    1
    84    94    96    1
    85    52    53    1
    86    53    54    1
    87   124   122   ar
    88   124   126   ar
    89   122   121   ar
    90   126   125   ar
    91    78    76   ar
    92    76    75    1
    93    76    77   ar
    94   121   120    1
    95   121   123   ar
    96   117   116    1
    97   117   120    1
    98   117   118    1
    99   125   123   ar
   100    75    72    1
   101   119   118    2
   102    69    70    1
   103    69    66    1
   104    64    63   ar
   105    64    62   ar
   106    72    71    1
   107    72    73    1
   108    73    74    2
   109    63    61   ar
   110    62    60   ar
   111    66    67    1
   112    66    65    1
   113    61    60   ar
   114    60    59    1
   115    67    68    2
   116    59    56    1
   117    56    55    1
   118    56    57    1
   119    57    58    2
