@<TRIPOS>MOLECULE
tmp/2qzzA01.pdb
 183 178 0 0 0
SMALL
GASTEIGER

@<TRIPOS>ATOM
      1  N          8.3290   -2.9700   17.0310 N.3    81  PHE81      -0.1241
      2  CA         9.0140   -2.6110   15.7910 C.3    81  PHE81       0.1605
      3  C          8.1020   -2.5600   14.5630 C.2    81  PHE81       0.2264
      4  O          8.1340   -1.5970   13.8020 O.2    81  PHE81      -0.2867
      5  CB        10.1450   -3.6170   15.5070 C.3    81  PHE81       0.0534
      6  CG        11.4390   -3.2850   16.1950 C.ar   81  PHE81      -0.0203
      7  CD1       12.4150   -4.2520   16.3700 C.ar   81  PHE81      -0.0042
      8  CD2       11.7090   -1.9810   16.6100 C.ar   81  PHE81      -0.0042
      9  CE1       13.6460   -3.9420   16.9440 C.ar   81  PHE81      -0.0003
     10  CE2       12.9360   -1.6690   17.1830 C.ar   81  PHE81      -0.0003
     11  CZ        13.8990   -2.6430   17.3500 C.ar   81  PHE81      -0.0000
     12  N         10.4230    4.3120   22.1240 N.3   107  ASP107     -0.1225
     13  CA        11.8570    4.2110   21.9290 C.3   107  ASP107      0.1805
     14  C         12.2810    3.0670   22.8450 C.2   107  ASP107      0.2598
     15  O         12.3280    1.9070   22.4200 O.2   107  ASP107     -0.2718
     16  CB        12.5400    5.5280   22.3090 C.3   107  ASP107      0.1424
     17  CG        12.2110    6.6490   21.3330 C.2   107  ASP107      0.3668
     18  OD1       12.0480    6.3560   20.1300 O.co2 107  ASP107     -0.2456
     19  OD2       12.1290    7.8190   21.7570 O.co2 107  ASP107     -0.2456
     20  N         12.5600    3.4040   24.1020 N.am  108  PHE108     -0.1962
     21  CA        12.9360    2.4400   25.1370 C.3   108  PHE108      0.1771
     22  C         14.1020    1.4990   24.8140 C.2   108  PHE108      0.2620
     23  O         14.0490    0.3000   25.0900 O.2   108  PHE108     -0.2715
     24  CB        11.6860    1.6460   25.5630 C.3   108  PHE108      0.0574
     25  CG        10.5360    2.5230   25.9960 C.ar  108  PHE108     -0.0200
     26  CD1        9.4130    2.6760   25.1900 C.ar  108  PHE108     -0.0042
     27  CD2       10.6060    3.2450   27.1860 C.ar  108  PHE108     -0.0042
     28  CE1        8.3690    3.5400   25.5610 C.ar  108  PHE108     -0.0003
     29  CE2        9.5830    4.1070   27.5650 C.ar  108  PHE108     -0.0003
     30  CZ         8.4580    4.2560   26.7480 C.ar  108  PHE108     -0.0000
     31  N         15.1680    2.0590   24.2510 N.am  109  GLY109     -0.1940
     32  CA        16.3340    1.2650   23.9140 C.3   109  GLY109      0.2014
     33  C         17.5470    2.1570   23.7400 C.2   109  GLY109      0.2638
     34  O         17.8970    2.9170   24.6440 O.2   109  GLY109     -0.2714
     35  N         18.1860    2.0640   22.5780 N.am  110  VAL110     -0.1977
     36  CA        19.3550    2.8830   22.2820 C.3   110  VAL110      0.1596
     37  C         18.8990    4.3160   22.0280 C.2   110  VAL110      0.2287
     38  O         17.7240    4.5530   21.7600 O.2   110  VAL110     -0.2864
     39  CB        20.0840    2.3790   21.0210 C.3   110  VAL110      0.0276
     40  CG1       20.6360    0.9810   21.2640 C.3   110  VAL110      0.0022
     41  CG2       19.1210    2.3780   19.8290 C.3   110  VAL110      0.0022
     42  N         19.2190   -2.7260   11.3760 N.3   121  PHE121     -0.1241
     43  CA        18.7870   -1.9890   12.5610 C.3   121  PHE121      0.1605
     44  C         18.6340   -0.4910   12.2860 C.2   121  PHE121      0.2264
     45  O         17.7070    0.1440   12.7950 O.2   121  PHE121     -0.2867
     46  CB        19.7790   -2.2330   13.7090 C.3   121  PHE121      0.0534
     47  CG        19.3180   -1.7090   15.0440 C.ar  121  PHE121     -0.0203
     48  CD1       17.9640   -1.6720   15.3620 C.ar  121  PHE121     -0.0042
     49  CD2       20.2410   -1.3120   16.0070 C.ar  121  PHE121     -0.0042
     50  CE1       17.5340   -1.2520   16.6210 C.ar  121  PHE121     -0.0003
     51  CE2       19.8250   -0.8890   17.2760 C.ar  121  PHE121     -0.0003
     52  CZ        18.4600   -0.8610   17.5790 C.ar  121  PHE121     -0.0000
     53  N         15.5690    2.2000   13.4550 N.3   125  ILE125     -0.1245
     54  CA        15.7290    3.3840   14.2800 C.3   125  ILE125      0.1561
     55  C         15.5070    4.6590   13.4740 C.2   125  ILE125      0.2260
     56  O         15.2220    5.7180   14.0400 O.2   125  ILE125     -0.2867
     57  CB        17.0970    3.4040   15.0200 C.3   125  ILE125      0.0252
     58  CG1       18.2630    3.3760   14.0370 C.3   125  ILE125      0.0019
     59  CG2       17.1740    2.2060   15.9670 C.3   125  ILE125      0.0019
     60  CD1       19.6170    3.4200   14.7320 C.3   125  ILE125      0.0001
     61  N         12.0020    5.4120   13.9750 N.3   128  LYS128     -0.1245
     62  CA        11.7520    5.9990   15.2860 C.3   128  LYS128      0.1561
     63  C         12.1430    7.4820   15.2600 C.2   128  LYS128      0.2260
     64  O         11.5050    8.3140   15.9100 O.2   128  LYS128     -0.2867
     65  CB        12.5260    5.2410   16.3670 C.3   128  LYS128      0.0271
     66  CG        12.0080    3.8300   16.5760 C.3   128  LYS128      0.0035
     67  CD        12.5700    3.2160   17.8420 C.3   128  LYS128      0.0206
     68  CE        11.9550    1.8570   18.1000 C.3   128  LYS128      0.1093
     69  NZ        12.4060    1.2770   19.3900 N.3   128  LYS128     -0.1314
     70  N         18.0730    1.7450   27.4800 N.3   148  ASN148     -0.1225
     71  CA        19.2080    0.8470   27.2940 C.3   148  ASN148      0.1785
     72  C         18.7230   -0.6150   27.2640 C.2   148  ASN148      0.2597
     73  O         17.5810   -0.8570   26.8770 O.2   148  ASN148     -0.2718
     74  CB        20.2830    1.1120   28.3510 C.3   148  ASN148      0.1169
     75  CG        21.0950    2.3560   28.0300 C.2   148  ASN148      0.2627
     76  OD1       21.4150    2.6110   26.8660 O.2   148  ASN148     -0.2716
     77  ND2       21.4360    3.1340   29.0560 N.am  148  ASN148     -0.0877
     78  N         19.5480   -1.5830   27.6630 N.am  149  CYS149     -0.1956
     79  CA        19.1230   -2.9940   27.5760 C.3   149  CYS149      0.1843
     80  C         18.1120   -3.4930   28.6150 C.2   149  CYS149      0.2625
     81  O         18.2780   -3.2570   29.8120 O.2   149  CYS149     -0.2714
     82  CB        20.3460   -3.9200   27.6160 C.3   149  CYS149      0.0997
     83  SG        21.5770   -3.6480   26.3090 S.3   149  CYS149     -0.0797
     84  N         17.0670   -4.1890   28.1620 N.am  150  PHE150     -0.1974
     85  CA        16.0900   -4.7520   29.0970 C.3   150  PHE150      0.1639
     86  C         16.8850   -5.8930   29.7530 C.2   150  PHE150      0.2290
     87  O         17.3060   -6.8430   29.0790 O.2   150  PHE150     -0.2864
     88  CB        14.8650   -5.3020   28.3510 C.3   150  PHE150      0.0560
     89  CG        13.9130   -4.2420   27.8370 C.ar  150  PHE150     -0.0200
     90  CD1       14.1990   -2.8800   27.9460 C.ar  150  PHE150     -0.0042
     91  CD2       12.7370   -4.6200   27.1980 C.ar  150  PHE150     -0.0042
     92  CE1       13.3230   -1.9160   27.4150 C.ar  150  PHE150     -0.0003
     93  CE2       11.8610   -3.6630   26.6670 C.ar  150  PHE150     -0.0003
     94  CZ        12.1610   -2.3100   26.7770 C.ar  150  PHE150     -0.0000
     95  N         15.5020   -9.6640   29.8450 N.3   153  TYR153     -0.1227
     96  CA        15.5130  -10.0750   28.4590 C.3   153  TYR153      0.1736
     97  C         16.9220  -10.5060   28.0880 C.2   153  TYR153      0.2595
     98  O         17.1310  -11.6180   27.6070 O.2   153  TYR153     -0.2718
     99  CB        15.0730   -8.9050   27.5700 C.3   153  TYR153      0.0548
    100  CG        14.8650   -9.2400   26.1050 C.ar  153  TYR153     -0.0200
    101  CD1       13.5830   -9.2690   25.5530 C.ar  153  TYR153     -0.0009
    102  CD2       15.9500   -9.4850   25.2620 C.ar  153  TYR153     -0.0009
    103  CE1       13.3900   -9.5320   24.1980 C.ar  153  TYR153      0.0417
    104  CE2       15.7660   -9.7480   23.9040 C.ar  153  TYR153      0.0417
    105  CZ        14.4830   -9.7700   23.3820 C.ar  153  TYR153      0.1957
    106  OH        14.2880  -10.0440   22.0480 O.3   153  TYR153     -0.2866
    107  N         17.8980   -9.6330   28.3380 N.am  154  PHE154     -0.1976
    108  CA        19.2630   -9.9540   27.9640 C.3   154  PHE154      0.1639
    109  C         20.0680  -10.8710   28.8530 C.2   154  PHE154      0.2290
    110  O         21.0460  -11.4630   28.3920 O.2   154  PHE154     -0.2864
    111  CB        20.0330   -8.6750   27.6460 C.3   154  PHE154      0.0560
    112  CG        19.7290   -8.1570   26.2850 C.ar  154  PHE154     -0.0200
    113  CD1       18.8240   -7.1160   26.0990 C.ar  154  PHE154     -0.0042
    114  CD2       20.2570   -8.7880   25.1680 C.ar  154  PHE154     -0.0042
    115  CE1       18.4470   -6.7210   24.8090 C.ar  154  PHE154     -0.0003
    116  CE2       19.8890   -8.4020   23.8800 C.ar  154  PHE154     -0.0003
    117  CZ        18.9870   -7.3750   23.6970 C.ar  154  PHE154     -0.0000
    118  N         18.9280  -13.9050   27.2950 N.3   157  TYR157     -0.1241
    119  CA        19.5370  -14.0350   25.9830 C.3   157  TYR157      0.1605
    120  C         21.0280  -14.3820   26.0000 C.2   157  TYR157      0.2264
    121  O         21.4910  -15.2330   25.2300 O.2   157  TYR157     -0.2867
    122  CB        19.3420  -12.7390   25.1860 C.3   157  TYR157      0.0534
    123  CG        19.5680  -12.9070   23.7020 C.ar  157  TYR157     -0.0201
    124  CD1       18.5490  -13.3670   22.8730 C.ar  157  TYR157     -0.0009
    125  CD2       20.8180  -12.6630   23.1350 C.ar  157  TYR157     -0.0009
    126  CE1       18.7660  -13.5870   21.5160 C.ar  157  TYR157      0.0417
    127  CE2       21.0490  -12.8830   21.7770 C.ar  157  TYR157      0.0417
    128  CZ        20.0200  -13.3460   20.9750 C.ar  157  TYR157      0.1957
    129  OH        20.2440  -13.5890   19.6370 O.3   157  TYR157     -0.2866
    130  N         18.0510   -9.0760   14.5020 N.3   254  PRO254     -0.2116
    131  CA        18.6410   -9.3730   15.8150 C.3   254  PRO254      0.1372
    132  C         20.1720   -9.3700   15.7400 C.2   254  PRO254      0.2244
    133  O         20.8510   -8.9080   16.6590 O.2   254  PRO254     -0.2868
    134  CB        18.1020  -10.7650   16.1360 C.3   254  PRO254      0.0268
    135  CG        16.8130  -10.8210   15.3880 C.3   254  PRO254      0.0207
    136  CD        17.1200  -10.1400   14.0880 C.3   254  PRO254      0.0892
    137  N         21.4780   -5.9200   15.6860 N.3   257  ILE257     -0.1231
    138  CA        21.3320   -5.3360   17.0170 C.3   257  ILE257      0.1692
    139  C         22.4240   -5.8820   17.9420 C.2   257  ILE257      0.2591
    140  O         23.0100   -5.1370   18.7220 O.2   257  ILE257     -0.2718
    141  CB        19.9210   -5.6210   17.5860 C.3   257  ILE257      0.0266
    142  CG1       18.8870   -4.8470   16.7580 C.3   257  ILE257      0.0019
    143  CG2       19.8260   -5.2060   19.0590 C.3   257  ILE257      0.0020
    144  CD1       17.4520   -5.1400   17.1330 C.3   257  ILE257      0.0001
    145  N         22.7160   -7.1750   17.8420 N.am  258  LEU258     -0.1980
    146  CA        23.7620   -7.7620   18.6750 C.3   258  LEU258      0.1596
    147  C         25.0870   -7.0580   18.4020 C.2   258  LEU258      0.2287
    148  O         25.8640   -6.8020   19.3240 O.2   258  LEU258     -0.2864
    149  CB        23.9000   -9.2620   18.3980 C.3   258  LEU258      0.0297
    150  CG        22.8280  -10.1550   19.0260 C.3   258  LEU258      0.0022
    151  CD1       23.0070  -11.5830   18.5360 C.3   258  LEU258      0.0001
    152  CD2       22.9200  -10.0880   20.5500 C.3   258  LEU258      0.0001
    153  N         24.8730   -3.4990   20.0390 N.3   261  LEU261     -0.1245
    154  CA        24.9150   -3.5210   21.4930 C.3   261  LEU261      0.1561
    155  C         26.1580   -4.1160   22.1220 C.2   261  LEU261      0.2260
    156  O         26.7310   -3.5410   23.0440 O.2   261  LEU261     -0.2867
    157  CB        23.7060   -4.2860   22.0370 C.3   261  LEU261      0.0270
    158  CG        22.3090   -3.8230   21.6240 C.3   261  LEU261      0.0019
    159  CD1       21.2680   -4.7520   22.2350 C.3   261  LEU261      0.0001
    160  CD2       22.0760   -2.4070   22.0970 C.3   261  LEU261      0.0001
    161  N         25.3270    1.4420   23.7980 N.3   267  THR267     -0.1218
    162  CA        24.6590    2.0060   24.9650 C.3   267  THR267      0.1862
    163  C         25.6430    2.7200   25.8870 C.2   267  THR267      0.2287
    164  O         25.2330    3.4440   26.7960 O.2   267  THR267     -0.2866
    165  CB        23.9100    0.9230   25.7890 C.3   267  THR267      0.1770
    166  OG1       24.8400   -0.0580   26.2560 O.3   267  THR267     -0.2211
    167  CG2       22.8480    0.2280   24.9320 C.3   267  THR267      0.0375
    168  N         11.5920  -10.4050   21.1280 N.3   308  ALA308     -0.1245
    169  CA        10.8930   -9.2800   20.5270 C.3   308  ALA308      0.1562
    170  C         10.3230   -9.6520   19.1640 C.2   308  ALA308      0.2260
    171  O         10.7180  -10.6530   18.5600 O.2   308  ALA308     -0.2867
    172  CB        11.8420   -8.0870   20.3910 C.3   308  ALA308      0.0290
    173  N          9.7220   -8.8710   15.1670 N.3   310  PHE310     -0.1241
    174  CA        10.3790   -8.1710   14.0680 C.3   310  PHE310      0.1605
    175  C          9.5750   -8.3040   12.7790 C.2   310  PHE310      0.2264
    176  O          8.7620   -9.2470   12.7210 O.2   310  PHE310     -0.2867
    177  CB        11.7890   -8.7250   13.8610 C.3   310  PHE310      0.0534
    178  CG        12.6660   -8.5900   15.0660 C.ar  310  PHE310     -0.0203
    179  CD1       12.9700   -7.3350   15.5750 C.ar  310  PHE310     -0.0042
    180  CD2       13.1760   -9.7130   15.7080 C.ar  310  PHE310     -0.0042
    181  CE1       13.7680   -7.2030   16.7070 C.ar  310  PHE310     -0.0003
    182  CE2       13.9750   -9.5830   16.8420 C.ar  310  PHE310     -0.0003
    183  CZ        14.2650   -8.3250   17.3330 C.ar  310  PHE310     -0.0000
@<TRIPOS>BOND
     1    42    43    1
     2    44    43    1
     3    44    45    2
     4    43    46    1
     5   176   175    2
     6   175   174    1
     7    53    54    1
     8    55    56    2
     9    55    54    1
    10    46    47    1
    11     4     3    2
    12   177   174    1
    13   177   178    1
    14    61    62    1
    15    58    60    1
    16    58    57    1
    17   174   173    1
    18   136   130    1
    19   136   135    1
    20    54    57    1
    21   130   131    1
    22     3     2    1
    23    57    59    1
    24    47    48   ar
    25    47    49   ar
    26   178   179   ar
    27   178   180   ar
    28    63    62    1
    29    63    64    2
    30    62    65    1
    31    48    50   ar
    32   135   134    1
    33     5     2    1
    34     5     6    1
    35   179   181   ar
    36   137   138    1
    37   180   182   ar
    38   132   131    1
    39   132   133    2
    40     2     1    1
    41   131   134    1
    42    49    51   ar
    43     6     7   ar
    44     6     8   ar
    45    65    66    1
    46     7     9   ar
    47    66    67    1
    48     8    10   ar
    49    50    52   ar
    50   181   183   ar
    51   142   144    1
    52   142   141    1
    53   182   183   ar
    54     9    11   ar
    55   138   141    1
    56   138   139    1
    57    10    11   ar
    58    51    52   ar
    59   141   143    1
    60   145   139   am
    61   145   146    1
    62    67    68    1
    63   139   140    2
    64    68    69    1
    65   149   146    1
    66   149   150    1
    67   147   146    1
    68   147   148    2
    69   151   150    1
    70   171   170    2
    71   150   152    1
    72   170   169    1
    73   129   128    1
    74    41    39    1
    75   153   154    1
    76    18    17   ar
    77   172   169    1
    78   169   168    1
    79   128   126   ar
    80   128   127   ar
    81    39    40    1
    82    39    36    1
    83    17    19   ar
    84    17    16    1
    85   154   157    1
    86   154   155    1
    87   126   124   ar
    88   158   157    1
    89   158   160    1
    90   158   159    1
    91    38    37    2
    92   127   125   ar
    93    13    12    1
    94    13    16    1
    95    13    14    1
    96    37    36    1
    97   106   105    1
    98   155   156    2
    99    36    35    1
   100    15    14    2
   101    35    33   am
   102    14    20   am
   103   124   123   ar
   104   125   123   ar
   105   105   104   ar
   106   105   103   ar
   107   117   116   ar
   108   117   115   ar
   109   123   122    1
   110    33    32    1
   111    33    34    2
   112   161   162    1
   113   116   114   ar
   114   104   102   ar
   115    32    31    1
   116    20    21    1
   117   103   101   ar
   118    31    22   am
   119   115   113   ar
   120    22    23    2
   121    22    21    1
   122   167   165    1
   123   162   165    1
   124   162   163    1
   125    21    24    1
   126   114   112   ar
   127   122   119    1
   128    26    28   ar
   129    26    25   ar
   130   121   120    2
   131   102   100   ar
   132   101   100   ar
   133    28    30   ar
   134    24    25    1
   135   165   166    1
   136   163   164    2
   137   119   120    1
   138   119   118    1
   139    25    27   ar
   140   113   112   ar
   141   100    99    1
   142   112   111    1
   143    83    82    1
   144    93    94   ar
   145    93    91   ar
   146    30    29   ar
   147    94    92   ar
   148    76    75    2
   149    73    72    2
   150    27    29   ar
   151    91    89   ar
   152    72    71    1
   153    72    78   am
   154    71    70    1
   155    71    74    1
   156    92    90   ar
   157    99    96    1
   158    79    82    1
   159    79    78    1
   160    79    80    1
   161    98    97    2
   162   111   108    1
   163    89    90   ar
   164    89    88    1
   165   108   107    1
   166   108   109    1
   167    75    74    1
   168    75    77   am
   169    97   107   am
   170    97    96    1
   171    84    80   am
   172    84    85    1
   173    88    85    1
   174   110   109    2
   175    96    95    1
   176    80    81    2
   177    87    86    2
   178    85    86    1
