@<TRIPOS>MOLECULE
tmp/2r00C00.pdb
 122 113 0 0 0
SMALL
GASTEIGER

@<TRIPOS>ATOM
      1  N          9.0940   24.8430   53.7220 N.3    14  ALA14      -0.1231
      2  CA         8.5120   24.6140   55.0420 C.3    14  ALA14       0.1694
      3  C          9.2520   23.4960   55.7930 C.2    14  ALA14       0.2591
      4  O          9.5440   23.6350   56.9890 O.2    14  ALA14      -0.2718
      5  CB         7.0070   24.2870   54.9090 C.3    14  ALA14       0.0304
      6  N          9.5490   22.3980   55.0960 N.am   15  VAL15      -0.1980
      7  CA        10.2550   21.2740   55.7230 C.3    15  VAL15       0.1595
      8  C         11.6920   21.6800   56.0900 C.2    15  VAL15       0.2287
      9  O         12.1290   21.4610   57.2140 O.2    15  VAL15      -0.2864
     10  CB        10.2210   19.9750   54.8540 C.3    15  VAL15       0.0276
     11  CG1       11.0980   18.8830   55.4900 C.3    15  VAL15       0.0022
     12  CG2        8.7720   19.4400   54.7160 C.3    15  VAL15       0.0022
     13  N         15.4090   18.2640   51.2740 N.3    72  SER72      -0.1217
     14  CA        13.9720   18.4670   51.0370 C.3    72  SER72       0.1889
     15  C         13.7140   19.4910   49.9230 C.2    72  SER72       0.2288
     16  O         13.0980   20.5330   50.1570 O.2    72  SER72      -0.2866
     17  CB        13.2450   18.8820   52.3150 C.3    72  SER72       0.2089
     18  OG        11.8600   18.5560   52.2030 O.3    72  SER72      -0.2183
     19  N         14.3370   13.6200   52.3170 N.3    95  ASN95      -0.1225
     20  CA        12.8880   13.7970   52.4280 C.3    95  ASN95       0.1785
     21  C         12.2720   13.9960   51.0380 C.2    95  ASN95       0.2598
     22  O         11.7330   15.0650   50.7330 O.2    95  ASN95      -0.2718
     23  CB        12.5470   14.9830   53.3290 C.3    95  ASN95       0.1169
     24  CG        11.0710   15.0200   53.7160 C.2    95  ASN95       0.2627
     25  OD1       10.5690   14.1050   54.3660 O.2    95  ASN95      -0.2716
     26  ND2       10.3660   16.0630   53.2810 N.am   95  ASN95      -0.0877
     27  N         12.4270   13.0200   50.1600 N.am   96  THR96      -0.1939
     28  CA        11.6420   13.0080   48.9330 C.3    96  THR96       0.2028
     29  C         11.2100   11.5780   48.7440 C.2    96  THR96       0.2642
     30  O         11.6240   10.6940   49.5040 O.2    96  THR96      -0.2714
     31  CB        12.3920   13.5460   47.6650 C.3    96  THR96       0.1808
     32  OG1       13.2770   12.5530   47.1520 O.3    96  THR96      -0.2208
     33  CG2       13.1570   14.8320   47.9390 C.3    96  THR96       0.0379
     34  N         10.3700   11.3290   47.7470 N.am   97  SER97      -0.1949
     35  CA        10.0190    9.9680   47.4270 C.3    97  SER97       0.1924
     36  C         11.0710    9.2880   46.5480 C.2    97  SER97       0.2314
     37  O         10.9930    8.0800   46.3290 O.2    97  SER97      -0.2863
     38  CB         8.6750    9.9320   46.6980 C.3    97  SER97       0.2116
     39  OG         8.7980   10.6250   45.4680 O.3    97  SER97      -0.2180
     40  N         12.8760    5.9260   47.7090 N.3   100  ARG100     -0.1245
     41  CA        12.1860    5.0970   48.6990 C.3   100  ARG100      0.1563
     42  C         11.9810    3.6290   48.3080 C.2   100  ARG100      0.2260
     43  O         11.9170    2.7640   49.1860 O.2   100  ARG100     -0.2867
     44  CB        10.8530    5.7260   49.0650 C.3   100  ARG100      0.0307
     45  CG        10.9770    7.0360   49.8400 C.3   100  ARG100      0.0489
     46  CD         9.5970    7.4660   50.3310 C.3   100  ARG100      0.2205
     47  NE         9.6230    8.8400   50.8120 N.pl3 100  ARG100     -0.0865
     48  CZ         8.5980    9.6840   50.7460 C.cat 100  ARG100      0.5346
     49  NH1        7.4330    9.3120   50.2250 N.pl3 100  ARG100      0.1354
     50  NH2        8.7560   10.9080   51.2010 N.pl3 100  ARG100      0.1354
     51  N         10.4110    8.4760   55.0240 N.3   129  PRO129     -0.2102
     52  CA         9.1330    8.0870   54.4370 C.3   129  PRO129      0.1504
     53  C          8.1040    9.2420   54.2670 C.2   129  PRO129      0.2575
     54  O          8.2740   10.3210   54.7760 O.2   129  PRO129     -0.2718
     55  CB         8.5890    7.0770   55.4520 C.3   129  PRO129      0.0282
     56  CG         9.6810    6.6640   56.2000 C.3   129  PRO129      0.0208
     57  CD        10.5270    7.8700   56.3460 C.3   129  PRO129      0.0893
     58  N          7.0350    8.9250   53.5590 N.am  130  ASN130     -0.1975
     59  CA         5.8320    9.7280   53.4040 C.3   130  ASN130      0.1688
     60  C          5.1480   10.1300   54.7110 C.2   130  ASN130      0.2292
     61  O          5.0990    9.3410   55.5950 O.2   130  ASN130     -0.2864
     62  CB         4.8610    8.9640   52.5010 C.3   130  ASN130      0.1181
     63  CG         3.4630    9.4360   52.6060 C.2   130  ASN130      0.2629
     64  OD1        2.6990    8.8630   53.2900 O.2   130  ASN130     -0.2716
     65  ND2        3.1190   10.4430   51.8570 N.am  130  ASN130     -0.0877
     66  N         -0.5360   22.0680   54.3490 N.3   160  SER160     -0.1202
     67  CA         0.9150   22.1050   54.5590 C.3   160  SER160      0.2020
     68  C          1.6420   20.8910   53.9530 C.2   160  SER160      0.2619
     69  O          2.8650   20.9270   53.7570 O.2   160  SER160     -0.2717
     70  CB         1.2690   22.2630   56.0420 C.3   160  SER160      0.2103
     71  OG         0.8990   21.1210   56.7840 O.3   160  SER160     -0.2182
     72  N          0.9030   19.8270   53.6350 N.am  161  GLY161     -0.1956
     73  CA         1.4830   18.7150   52.8740 C.3   161  GLY161      0.1869
     74  C          1.9810   19.1550   51.5090 C.2   161  GLY161      0.2309
     75  O          2.8810   18.5450   50.9360 O.2   161  GLY161     -0.2863
     76  N          3.3880   22.0930   51.1430 N.3   163  GLY163     -0.1225
     77  CA         4.3180   23.1730   51.4950 C.3   163  GLY163      0.1811
     78  C          3.6940   24.5590   51.6380 C.2   163  GLY163      0.2280
     79  O          2.4850   24.7030   51.8750 O.2   163  GLY163     -0.2866
     80  N          1.7210    5.0470   48.0510 N.3   214  LYS214     -0.1245
     81  CA         2.8290    5.2270   48.9920 C.3   214  LYS214      0.1561
     82  C          2.4920    4.5940   50.3370 C.2   214  LYS214      0.2260
     83  O          3.3030    3.8640   50.9020 O.2   214  LYS214     -0.2867
     84  CB         3.1680    6.7060   49.1950 C.3   214  LYS214      0.0271
     85  CG         3.9470    7.3420   48.0370 C.3   214  LYS214      0.0035
     86  CD         4.0830    8.8440   48.2110 C.3   214  LYS214      0.0206
     87  CE         4.7510    9.4750   46.9920 C.3   214  LYS214      0.1093
     88  NZ         4.7430   10.9570   47.1630 N.3   214  LYS214     -0.1314
     89  N         -1.7880   16.1740   59.9730 N.3   243  HIS243     -0.1241
     90  CA        -2.6040   15.2050   59.2520 C.3   243  HIS243      0.1621
     91  C         -3.3440   14.3390   60.2370 C.2   243  HIS243      0.2264
     92  O         -2.7770   13.9530   61.2530 O.2   243  HIS243     -0.2867
     93  CB        -1.7470   14.3100   58.3580 C.3   243  HIS243      0.0745
     94  CG        -1.2510   14.9960   57.1270 C.ar  243  HIS243      0.0817
     95  ND1       -0.3380   14.4200   56.2680 N.ar  243  HIS243     -0.2268
     96  CD2       -1.5240   16.2220   56.6240 C.ar  243  HIS243      0.1154
     97  CE1       -0.1060   15.2500   55.2650 C.ar  243  HIS243      0.1986
     98  NE2       -0.8110   16.3510   55.4610 N.ar  243  HIS243     -0.2212
     99  N          2.4840   16.9300   60.2370 N.3   314  ASN314     -0.1225
    100  CA         3.0980   16.3580   59.0380 C.3   314  ASN314      0.1785
    101  C          4.4000   17.0480   58.5710 C.2   314  ASN314      0.2597
    102  O          5.1920   16.4640   57.8240 O.2   314  ASN314     -0.2718
    103  CB         2.0860   16.3820   57.9020 C.3   314  ASN314      0.1169
    104  CG         1.5280   17.7740   57.6520 C.2   314  ASN314      0.2627
    105  OD1        0.7760   18.2960   58.4590 O.2   314  ASN314     -0.2716
    106  ND2        1.9110   18.3800   56.5470 N.am  314  ASN314     -0.0877
    107  N          4.6020   18.2950   58.9810 N.am  315  VAL315     -0.1980
    108  CA         5.8650   18.9920   58.7060 C.3   315  VAL315      0.1595
    109  C          6.9570   18.5870   59.7080 C.2   315  VAL315      0.2287
    110  O          8.1480   18.5800   59.3750 O.2   315  VAL315     -0.2864
    111  CB         5.6970   20.5180   58.7110 C.3   315  VAL315      0.0276
    112  CG1        6.9660   21.1730   58.1490 C.3   315  VAL315      0.0022
    113  CG2        4.4670   20.9260   57.8710 C.3   315  VAL315      0.0022
    114  N          6.0300   14.0800   60.5260 N.3   318  GLY318     -0.1210
    115  CA         5.8500   13.6060   59.1550 C.3   318  GLY318      0.1956
    116  C          6.9800   13.9050   58.1910 C.2   318  GLY318      0.2611
    117  O          6.9930   13.4090   57.0510 O.2   318  GLY318     -0.2717
    118  N          7.9340   14.7260   58.6200 N.am  319  ALA319     -0.1979
    119  CA         9.0290   15.0960   57.7490 C.3   319  ALA319      0.1597
    120  C         10.3180   15.4360   58.5090 C.2   319  ALA319      0.2287
    121  O         11.1960   14.5810   58.6900 O.2   319  ALA319     -0.2864
    122  CB         8.5970   16.2550   56.8390 C.3   319  ALA319      0.0319
@<TRIPOS>BOND
     1    39    38    1
     2    37    36    2
     3    36    35    1
     4    38    35    1
     5    87    88    1
     6    87    86    1
     7    32    31    1
     8    35    34    1
     9    31    33    1
    10    31    28    1
    11    40    41    1
    12    34    29   am
    13    85    86    1
    14    85    84    1
    15    80    81    1
    16    42    41    1
    17    42    43    2
    18    41    44    1
    19    29    28    1
    20    29    30    2
    21    28    27    1
    22    81    84    1
    23    81    82    1
    24    44    45    1
    25    45    46    1
    26    15    16    2
    27    15    14    1
    28    27    21   am
    29    49    48    1
    30    46    47    1
    31    82    83    2
    32    22    21    2
    33    48    47    2
    34    48    50    1
    35    75    74    2
    36    14    13    1
    37    14    17    1
    38    21    20    1
    39    76    77    1
    40    77    78    1
    41    74    73    1
    42    78    79    2
    43    65    63   am
    44    18    17    1
    45    19    20    1
    46    20    23    1
    47    62    63    1
    48    62    59    1
    49    63    64    2
    50    73    72    1
    51    26    24   am
    52    23    24    1
    53    59    58    1
    54    59    60    1
    55    58    53   am
    56    72    68   am
    57    24    25    2
    58     1     2    1
    59    69    68    2
    60    68    67    1
    61    53    52    1
    62    53    54    2
    63    66    67    1
    64    52    51    1
    65    52    55    1
    66    67    70    1
    67    60    61    2
    68    12    10    1
    69    10    11    1
    70    10     7    1
    71     5     2    1
    72    51    57    1
    73     2     3    1
    74     6     7    1
    75     6     3   am
    76    97    98   ar
    77    97    95   ar
    78    55    56    1
    79    98    96   ar
    80     7     8    1
    81     3     4    2
    82    70    71    1
    83     8     9    2
    84    56    57    1
    85    95    94   ar
    86   106   104   am
    87    96    94   ar
    88   122   119    1
    89   117   116    2
    90    94    93    1
    91   104   103    1
    92   104   105    2
    93   119   120    1
    94   119   118    1
    95   102   101    2
    96   113   111    1
    97   103   100    1
    98   112   111    1
    99   116   118   am
   100   116   115    1
   101    93    90    1
   102   120   121    2
   103   101   107   am
   104   101   100    1
   105   108   111    1
   106   108   107    1
   107   108   109    1
   108   100    99    1
   109   115   114    1
   110    90    89    1
   111    90    91    1
   112   110   109    2
   113    91    92    2
