@<TRIPOS>MOLECULE
tmp/2r03A00.pdb
 149 140 0 0 0
SMALL
GASTEIGER

@<TRIPOS>ATOM
      1  N        -72.1150  -50.0340  -54.3850 N.3   385  ARG385     -0.1245
      2  CA       -73.0600  -49.2120  -55.1250 C.3   385  ARG385      0.1563
      3  C        -73.1960  -49.6760  -56.5700 C.2   385  ARG385      0.2260
      4  O        -74.3130  -49.7640  -57.0780 O.2   385  ARG385     -0.2867
      5  CB       -72.6650  -47.7390  -55.0810 C.3   385  ARG385      0.0307
      6  CG       -72.9730  -47.0260  -53.7760 C.3   385  ARG385      0.0489
      7  CD       -73.5030  -45.5960  -54.0580 C.3   385  ARG385      0.2205
      8  NE       -72.7710  -44.5710  -53.3110 N.pl3 385  ARG385     -0.0865
      9  CZ       -72.8240  -44.4020  -51.9880 C.cat 385  ARG385      0.5346
     10  NH1      -73.5940  -45.1930  -51.2400 N.pl3 385  ARG385      0.1354
     11  NH2      -72.1040  -43.4370  -51.4180 N.pl3 385  ARG385      0.1354
     12  N        -79.6450  -25.7400  -58.8990 N.3   439  LEU439     -0.1245
     13  CA       -78.3180  -26.1860  -59.2550 C.3   439  LEU439      0.1561
     14  C        -77.5720  -25.1620  -60.1360 C.2   439  LEU439      0.2260
     15  O        -76.3930  -24.8920  -59.8820 O.2   439  LEU439     -0.2867
     16  CB       -78.3810  -27.5700  -59.8930 C.3   439  LEU439      0.0270
     17  CG       -77.1000  -28.4060  -59.8500 C.3   439  LEU439      0.0019
     18  CD1      -76.6310  -28.6590  -58.4140 C.3   439  LEU439      0.0001
     19  CD2      -77.2740  -29.7160  -60.6230 C.3   439  LEU439      0.0001
     20  N        -59.1400  -24.0180  -60.4020 N.3   494  PHE494     -0.1241
     21  CA       -60.5300  -23.9460  -59.9720 C.3   494  PHE494      0.1605
     22  C        -61.4290  -23.9660  -61.1800 C.2   494  PHE494      0.2264
     23  O        -62.4970  -24.5690  -61.1520 O.2   494  PHE494     -0.2867
     24  CB       -60.8100  -22.6800  -59.1660 C.3   494  PHE494      0.0534
     25  CG       -60.2560  -22.7070  -57.7770 C.ar  494  PHE494     -0.0203
     26  CD1      -59.5130  -21.6360  -57.2930 C.ar  494  PHE494     -0.0042
     27  CD2      -60.4780  -23.7990  -56.9390 C.ar  494  PHE494     -0.0042
     28  CE1      -59.0060  -21.6470  -56.0020 C.ar  494  PHE494     -0.0003
     29  CE2      -59.9500  -23.8210  -55.6380 C.ar  494  PHE494     -0.0003
     30  CZ       -59.2170  -22.7410  -55.1720 C.ar  494  PHE494     -0.0000
     31  N        -61.9060  -27.3550  -62.3260 N.3   497  VAL497     -0.1245
     32  CA       -62.8440  -28.0470  -61.4510 C.3   497  VAL497      0.1561
     33  C        -64.2830  -27.6990  -61.8550 C.2   497  VAL497      0.2260
     34  O        -65.1450  -28.5750  -61.9070 O.2   497  VAL497     -0.2867
     35  CB       -62.5710  -27.7590  -59.9640 C.3   497  VAL497      0.0252
     36  CG1      -63.8240  -28.0100  -59.1000 C.3   497  VAL497      0.0019
     37  CG2      -61.3770  -28.5910  -59.4780 C.3   497  VAL497      0.0019
     38  N        -65.5880  -29.4580  -64.9900 N.3   500  LYS500     -0.1231
     39  CA       -66.0130  -30.8230  -64.6690 C.3   500  LYS500      0.1693
     40  C        -67.4120  -30.8480  -64.0460 C.2   500  LYS500      0.2591
     41  O        -68.2260  -31.7100  -64.3590 O.2   500  LYS500     -0.2718
     42  CB       -64.9860  -31.5180  -63.7510 C.3   500  LYS500      0.0285
     43  CG       -63.7830  -32.2070  -64.4750 C.3   500  LYS500      0.0035
     44  CD       -63.0270  -31.2660  -65.4390 C.3   500  LYS500      0.0206
     45  CE       -61.7160  -31.8650  -65.9730 C.3   500  LYS500      0.1093
     46  NZ       -61.9250  -32.8540  -67.0830 N.3   500  LYS500     -0.1314
     47  N        -67.6890  -29.8900  -63.1750 N.am  501  ALA501     -0.1980
     48  CA       -68.9680  -29.8310  -62.4970 C.3   501  ALA501      0.1597
     49  C        -70.1160  -29.6220  -63.4840 C.2   501  ALA501      0.2287
     50  O        -71.1350  -30.3180  -63.4120 O.2   501  ALA501     -0.2864
     51  CB       -68.9450  -28.7530  -61.4540 C.3   501  ALA501      0.0319
     52  N        -70.9330  -32.8100  -65.3000 N.3   504  ALA504     -0.1231
     53  CA       -71.7160  -33.6040  -64.3450 C.3   504  ALA504      0.1694
     54  C        -73.1580  -33.0940  -64.2150 C.2   504  ALA504      0.2592
     55  O        -74.0880  -33.9110  -64.2530 O.2   504  ALA504     -0.2718
     56  CB       -71.0320  -33.6710  -62.9780 C.3   504  ALA504      0.0304
     57  N        -73.3370  -31.7690  -64.0820 N.am  505  ASP505     -0.1974
     58  CA       -74.6750  -31.1470  -64.1330 C.3   505  ASP505      0.1709
     59  C        -75.4230  -31.6320  -65.3710 C.2   505  ASP505      0.2293
     60  O        -76.5970  -32.0110  -65.2850 O.2   505  ASP505     -0.2864
     61  CB       -74.6290  -29.6190  -64.2350 C.3   505  ASP505      0.1436
     62  CG       -74.1180  -28.9260  -62.9840 C.2   505  ASP505      0.3671
     63  OD1      -73.6950  -29.5810  -62.0000 O.co2 505  ASP505     -0.2456
     64  OD2      -74.1380  -27.6740  -63.0140 O.co2 505  ASP505     -0.2456
     65  N        -75.0020  -34.4340  -66.9980 N.3   507  GLN507     -0.1231
     66  CA       -75.3780  -35.8410  -66.8950 C.3   507  GLN507      0.1698
     67  C        -76.6680  -35.9830  -66.0950 C.2   507  GLN507      0.2592
     68  O        -77.6040  -36.6130  -66.5530 O.2   507  GLN507     -0.2718
     69  CB       -74.2630  -36.6890  -66.2820 C.3   507  GLN507      0.0381
     70  CG       -72.8440  -36.3290  -66.7390 C.3   507  GLN507      0.0905
     71  CD       -72.3770  -37.0990  -67.9750 C.2   507  GLN507      0.2608
     72  OE1      -73.0700  -37.1390  -69.0030 O.2   507  GLN507     -0.2717
     73  NE2      -71.1850  -37.7090  -67.8810 N.am  507  GLN507     -0.0878
     74  N        -76.7160  -35.3730  -64.9180 N.am  508  VAL508     -0.1980
     75  CA       -77.9050  -35.3950  -64.0610 C.3   508  VAL508      0.1595
     76  C        -79.1380  -34.7960  -64.7720 C.2   508  VAL508      0.2287
     77  O        -80.2280  -35.3770  -64.7330 O.2   508  VAL508     -0.2864
     78  CB       -77.6300  -34.6770  -62.7120 C.3   508  VAL508      0.0276
     79  CG1      -78.8870  -34.5250  -61.8690 C.3   508  VAL508      0.0022
     80  CG2      -76.5800  -35.4290  -61.9240 C.3   508  VAL508      0.0022
     81  N        -77.7500  -38.0890  -56.5570 N.3   668  ASN668     -0.1240
     82  CA       -76.9020  -37.2630  -57.4170 C.3   668  ASN668      0.1653
     83  C        -77.0950  -35.7660  -57.2080 C.2   668  ASN668      0.2266
     84  O        -76.1250  -35.0220  -57.1000 O.2   668  ASN668     -0.2867
     85  CB       -77.1340  -37.5860  -58.8940 C.3   668  ASN668      0.1155
     86  CG       -76.5440  -38.9100  -59.2970 C.2   668  ASN668      0.2627
     87  OD1      -75.6500  -39.4300  -58.6380 O.2   668  ASN668     -0.2716
     88  ND2      -77.0470  -39.4710  -60.3870 N.am  668  ASN668     -0.0877
     89  N        -75.6550  -34.6440  -54.0170 N.3   671  GLU671     -0.1231
     90  CA       -74.2040  -34.7080  -54.0940 C.3   671  GLU671      0.1699
     91  C        -73.6960  -33.4100  -54.7520 C.2   671  GLU671      0.2592
     92  O        -72.8210  -32.7340  -54.2030 O.2   671  GLU671     -0.2718
     93  CB       -73.7570  -35.9500  -54.8760 C.3   671  GLU671      0.0402
     94  CG       -72.2580  -36.2270  -54.7880 C.3   671  GLU671      0.1161
     95  CD       -71.6650  -36.9850  -55.9850 C.2   671  GLU671      0.3649
     96  OE1      -70.4440  -36.8380  -56.2190 O.co2 671  GLU671     -0.2457
     97  OE2      -72.3820  -37.7320  -56.6800 O.co2 671  GLU671     -0.2457
     98  N        -74.2630  -33.0510  -55.9060 N.am  672  GLY672     -0.1957
     99  CA       -73.9780  -31.7690  -56.5510 C.3   672  GLY672      0.1869
    100  C        -74.1640  -30.5460  -55.6520 C.2   672  GLY672      0.2309
    101  O        -73.3670  -29.5980  -55.6940 O.2   672  GLY672     -0.2863
    102  N        -71.5220  -30.3840  -52.9720 N.3   675  PHE675     -0.1227
    103  CA       -70.2950  -30.0340  -53.6720 C.3   675  PHE675      0.1736
    104  C        -70.2080  -28.5330  -53.8910 C.2   675  PHE675      0.2595
    105  O        -69.2200  -27.9050  -53.5030 O.2   675  PHE675     -0.2718
    106  CB       -70.1730  -30.7520  -55.0250 C.3   675  PHE675      0.0547
    107  CG       -69.1140  -30.1590  -55.9300 C.ar  675  PHE675     -0.0202
    108  CD1      -67.7940  -30.5740  -55.8420 C.ar  675  PHE675     -0.0042
    109  CD2      -69.4380  -29.1750  -56.8530 C.ar  675  PHE675     -0.0042
    110  CE1      -66.8030  -30.0120  -56.6620 C.ar  675  PHE675     -0.0003
    111  CE2      -68.4620  -28.6090  -57.6770 C.ar  675  PHE675     -0.0003
    112  CZ       -67.1360  -29.0320  -57.5790 C.ar  675  PHE675     -0.0000
    113  N        -71.2380  -27.9630  -54.5200 N.am  676  TYR676     -0.1976
    114  CA       -71.2390  -26.5410  -54.8300 C.3   676  TYR676      0.1639
    115  C        -71.2760  -25.7290  -53.5410 C.2   676  TYR676      0.2290
    116  O        -70.8820  -24.5650  -53.5300 O.2   676  TYR676     -0.2864
    117  CB       -72.4020  -26.1600  -55.7640 C.3   676  TYR676      0.0560
    118  CG       -72.2010  -26.4610  -57.2490 C.ar  676  TYR676     -0.0198
    119  CD1      -73.1660  -27.1500  -57.9630 C.ar  676  TYR676     -0.0009
    120  CD2      -71.0580  -26.0270  -57.9410 C.ar  676  TYR676     -0.0009
    121  CE1      -73.0170  -27.4320  -59.3170 C.ar  676  TYR676      0.0417
    122  CE2      -70.8890  -26.3010  -59.3250 C.ar  676  TYR676      0.0417
    123  CZ       -71.8820  -27.0060  -59.9990 C.ar  676  TYR676      0.1957
    124  OH       -71.7670  -27.2880  -61.3400 O.3   676  TYR676     -0.2866
    125  N        -69.6620  -26.8350  -50.5250 N.3   678  GLU678     -0.1231
    126  CA       -68.3080  -26.9070  -49.9830 C.3   678  GLU678      0.1699
    127  C        -67.3510  -26.0350  -50.8210 C.2   678  GLU678      0.2592
    128  O        -66.4020  -25.4480  -50.2900 O.2   678  GLU678     -0.2718
    129  CB       -67.8300  -28.3650  -49.8960 C.3   678  GLU678      0.0402
    130  CG       -66.9290  -28.6710  -48.6810 C.3   678  GLU678      0.1161
    131  CD       -67.3950  -29.8900  -47.8350 C.2   678  GLU678      0.3649
    132  OE1      -67.0880  -29.9000  -46.6160 O.co2 678  GLU678     -0.2457
    133  OE2      -68.0590  -30.8180  -48.3700 O.co2 678  GLU678     -0.2457
    134  N        -67.6300  -25.9300  -52.1200 N.am  679  LEU679     -0.1980
    135  CA       -66.7770  -25.1920  -53.0430 C.3   679  LEU679      0.1596
    136  C        -66.8270  -23.6920  -52.7930 C.2   679  LEU679      0.2287
    137  O        -65.8190  -23.0010  -52.9610 O.2   679  LEU679     -0.2864
    138  CB       -67.1320  -25.4990  -54.4990 C.3   679  LEU679      0.0297
    139  CG       -66.3620  -24.7270  -55.5790 C.3   679  LEU679      0.0022
    140  CD1      -64.8580  -25.0360  -55.5860 C.3   679  LEU679      0.0001
    141  CD2      -66.9640  -24.9680  -56.9440 C.3   679  LEU679      0.0001
    142  N        -64.3450  -23.1050  -50.1540 N.3   682  ILE682     -0.1245
    143  CA       -63.0100  -23.0810  -50.7530 C.3   682  ILE682      0.1561
    144  C        -62.7840  -21.7050  -51.3880 C.2   682  ILE682      0.2260
    145  O        -61.7900  -21.0330  -51.0950 O.2   682  ILE682     -0.2867
    146  CB       -62.7990  -24.2120  -51.8210 C.3   682  ILE682      0.0252
    147  CG1      -63.2770  -25.5880  -51.3240 C.3   682  ILE682      0.0019
    148  CG2      -61.3350  -24.2560  -52.3110 C.3   682  ILE682      0.0019
    149  CD1      -62.2930  -26.3600  -50.4550 C.3   682  ILE682      0.0001
@<TRIPOS>BOND
     1    72    71    2
     2    71    73   am
     3    71    70    1
     4    46    45    1
     5    65    66    1
     6    66    69    1
     7    66    67    1
     8    70    69    1
     9    68    67    2
    10    67    74   am
    11    45    44    1
    12    44    43    1
    13    59    60    2
    14    59    58    1
    15    52    53    1
    16    38    39    1
    17    74    75    1
    18    76    77    2
    19    76    75    1
    20    39    40    1
    21    39    42    1
    22    43    42    1
    23    41    40    2
    24    53    54    1
    25    53    56    1
    26    55    54    2
    27    61    58    1
    28    61    62    1
    29    54    57   am
    30    58    57    1
    31    75    78    1
    32    40    47   am
    33    49    50    2
    34    49    48    1
    35    47    48    1
    36    64    62   ar
    37    62    63   ar
    38    78    80    1
    39    78    79    1
    40    48    51    1
    41    31    32    1
    42    34    33    2
    43    33    32    1
    44    32    35    1
    45   124   123    1
    46    22    23    2
    47    22    21    1
    48    19    17    1
    49    20    21    1
    50    88    86   am
    51    14    15    2
    52    14    13    1
    53   123   122   ar
    54   123   121   ar
    55    21    24    1
    56    35    37    1
    57    35    36    1
    58    16    17    1
    59    16    13    1
    60    17    18    1
    61   122   120   ar
    62   121   119   ar
    63    86    85    1
    64    86    87    2
    65    13    12    1
    66    24    25    1
    67    85    82    1
    68   119   118   ar
    69   120   118   ar
    70    25    26   ar
    71    25    27   ar
    72   111   112   ar
    73   111   109   ar
    74   112   110   ar
    75    82    83    1
    76    82    81    1
    77    26    28   ar
    78   118   117    1
    79    83    84    2
    80     4     3    2
    81   141   139    1
    82    27    29   ar
    83   109   107   ar
    84    97    95   ar
    85   110   108   ar
    86     3     2    1
    87    99    98    1
    88    99   100    1
    89    96    95   ar
    90    28    30   ar
    91    95    94    1
    92   107   108   ar
    93   107   106    1
    94    98    91   am
    95   117   114    1
    96   101   100    2
    97    29    30   ar
    98   140   139    1
    99   139   138    1
   100     2     5    1
   101     2     1    1
   102     5     6    1
   103   106   103    1
   104    93    94    1
   105    93    90    1
   106   114   113    1
   107   114   115    1
   108    91    92    2
   109    91    90    1
   110   113   104   am
   111   138   135    1
   112    90    89    1
   113     7     6    1
   114     7     8    1
   115   104   103    1
   116   104   105    2
   117   103   102    1
   118   115   116    2
   119     8     9    2
   120   135   136    1
   121   135   134    1
   122   137   136    2
   123   148   146    1
   124   134   127   am
   125     9    11    1
   126     9    10    1
   127   146   147    1
   128   146   143    1
   129   144   145    2
   130   144   143    1
   131   147   149    1
   132   127   128    2
   133   127   126    1
   134   143   142    1
   135   125   126    1
   136   126   129    1
   137   129   130    1
   138   130   131    1
   139   133   131   ar
   140   131   132   ar
