@<TRIPOS>MOLECULE
tmp/2r05A00.pdb
 191 180 0 0 0
SMALL
GASTEIGER

@<TRIPOS>ATOM
      1  N        -62.9480  -46.1780  -50.2070 N.3   378  ASN378     -0.1240
      2  CA       -63.5760  -45.7930  -51.4670 C.3   378  ASN378      0.1653
      3  C        -63.7110  -46.9820  -52.4210 C.2   378  ASN378      0.2266
      4  O        -64.8130  -47.2830  -52.8790 O.2   378  ASN378     -0.2867
      5  CB       -62.8080  -44.6470  -52.1340 C.3   378  ASN378      0.1155
      6  CG       -62.6930  -43.4170  -51.2430 C.2   378  ASN378      0.2627
      7  OD1      -63.6400  -43.0280  -50.5530 O.2   378  ASN378     -0.2716
      8  ND2      -61.5180  -42.7990  -51.2550 N.am  378  ASN378     -0.0877
      9  N        -78.7660  -25.8350  -59.7760 N.3   439  LEU439     -0.1245
     10  CA       -77.4420  -26.2590  -60.1900 C.3   439  LEU439      0.1561
     11  C        -76.7620  -25.2060  -61.0810 C.2   439  LEU439      0.2260
     12  O        -75.5730  -24.9190  -60.8950 O.2   439  LEU439     -0.2867
     13  CB       -77.5360  -27.6030  -60.9010 C.3   439  LEU439      0.0270
     14  CG       -76.3710  -28.5700  -60.7800 C.3   439  LEU439      0.0019
     15  CD1      -76.1190  -28.9660  -59.3330 C.3   439  LEU439      0.0001
     16  CD2      -76.6840  -29.7770  -61.6390 C.3   439  LEU439      0.0001
     17  N        -53.2880  -20.9840  -59.6290 N.3   490  GLU490     -0.1245
     18  CA       -54.4570  -21.5120  -58.9350 C.3   490  GLU490      0.1567
     19  C        -55.7240  -21.1400  -59.7080 C.2   490  GLU490      0.2260
     20  O        -56.6370  -21.9650  -59.8510 O.2   490  GLU490     -0.2867
     21  CB       -54.5230  -21.0290  -57.4870 C.3   490  GLU490      0.0388
     22  CG       -53.5380  -21.7460  -56.5640 C.3   490  GLU490      0.1160
     23  CD       -53.4630  -21.1410  -55.1610 C.2   490  GLU490      0.3649
     24  OE1      -52.3800  -21.2140  -54.5400 O.co2 490  GLU490     -0.2457
     25  OE2      -54.4770  -20.5950  -54.6700 O.co2 490  GLU490     -0.2457
     26  N        -56.2350  -23.3780  -62.7460 N.3   493  ASN493     -0.1225
     27  CA       -56.5570  -24.6270  -62.0870 C.3   493  ASN493      0.1785
     28  C        -58.0590  -24.6920  -61.8130 C.2   493  ASN493      0.2597
     29  O        -58.7510  -25.5430  -62.3550 O.2   493  ASN493     -0.2718
     30  CB       -55.7740  -24.6960  -60.7810 C.3   493  ASN493      0.1169
     31  CG       -55.4210  -26.0990  -60.3810 C.2   493  ASN493      0.2627
     32  OD1      -54.2480  -26.4930  -60.4360 O.2   493  ASN493     -0.2716
     33  ND2      -56.4250  -26.8660  -59.9530 N.am  493  ASN493     -0.0877
     34  N        -58.5610  -23.7730  -60.9930 N.am  494  PHE494     -0.1976
     35  CA       -59.9790  -23.6870  -60.6740 C.3   494  PHE494      0.1639
     36  C        -60.8530  -23.7150  -61.9200 C.2   494  PHE494      0.2290
     37  O        -61.9220  -24.3240  -61.9310 O.2   494  PHE494     -0.2864
     38  CB       -60.2540  -22.3900  -59.9330 C.3   494  PHE494      0.0560
     39  CG       -59.8980  -22.4200  -58.4830 C.ar  494  PHE494     -0.0200
     40  CD1      -58.9830  -21.5060  -57.9640 C.ar  494  PHE494     -0.0042
     41  CD2      -60.5050  -23.3290  -57.6210 C.ar  494  PHE494     -0.0042
     42  CE1      -58.6640  -21.5050  -56.6140 C.ar  494  PHE494     -0.0003
     43  CE2      -60.1860  -23.3420  -56.2660 C.ar  494  PHE494     -0.0003
     44  CZ       -59.2660  -22.4280  -55.7600 C.ar  494  PHE494     -0.0000
     45  N        -61.2920  -27.1810  -63.0820 N.3   497  VAL497     -0.1245
     46  CA       -62.2670  -27.8150  -62.1880 C.3   497  VAL497      0.1561
     47  C        -63.6930  -27.4750  -62.6060 C.2   497  VAL497      0.2260
     48  O        -64.5290  -28.3660  -62.7320 O.2   497  VAL497     -0.2867
     49  CB       -62.0260  -27.4140  -60.7110 C.3   497  VAL497      0.0252
     50  CG1      -63.3110  -27.4710  -59.8850 C.3   497  VAL497      0.0019
     51  CG2      -60.9560  -28.2910  -60.1010 C.3   497  VAL497      0.0019
     52  N        -64.9670  -29.4150  -65.8260 N.3   500  LYS500     -0.1231
     53  CA       -65.2940  -30.8070  -65.5550 C.3   500  LYS500      0.1693
     54  C        -66.6260  -30.9000  -64.8020 C.2   500  LYS500      0.2591
     55  O        -67.3820  -31.8530  -64.9610 O.2   500  LYS500     -0.2718
     56  CB       -64.1480  -31.4800  -64.7760 C.3   500  LYS500      0.0285
     57  CG       -63.0150  -32.1380  -65.6360 C.3   500  LYS500      0.0035
     58  CD       -62.3700  -31.1860  -66.6660 C.3   500  LYS500      0.0206
     59  CE       -60.9860  -31.6620  -67.1460 C.3   500  LYS500      0.1093
     60  NZ       -61.0450  -32.9680  -67.8910 N.3   500  LYS500     -0.1314
     61  N        -66.9170  -29.8780  -64.0050 N.am  501  ALA501     -0.1980
     62  CA       -68.1890  -29.7710  -63.3190 C.3   501  ALA501      0.1597
     63  C        -69.3290  -29.5300  -64.3040 C.2   501  ALA501      0.2287
     64  O        -70.3770  -30.1680  -64.2000 O.2   501  ALA501     -0.2864
     65  CB       -68.1250  -28.6770  -62.2860 C.3   501  ALA501      0.0319
     66  N        -70.1280  -32.6280  -66.0810 N.3   504  ALA504     -0.1231
     67  CA       -70.9530  -33.3980  -65.1510 C.3   504  ALA504      0.1694
     68  C        -72.4080  -32.8960  -65.0170 C.2   504  ALA504      0.2592
     69  O        -73.3220  -33.7100  -64.8740 O.2   504  ALA504     -0.2718
     70  CB       -70.2860  -33.4840  -63.7870 C.3   504  ALA504      0.0304
     71  N        -72.6240  -31.5800  -65.0590 N.am  505  ASP505     -0.1974
     72  CA       -73.9840  -31.0360  -65.1660 C.3   505  ASP505      0.1709
     73  C        -74.6880  -31.5440  -66.4220 C.2   505  ASP505      0.2293
     74  O        -75.8810  -31.8500  -66.3880 O.2   505  ASP505     -0.2864
     75  CB       -73.9980  -29.5040  -65.1990 C.3   505  ASP505      0.1436
     76  CG       -73.4400  -28.8680  -63.9340 C.2   505  ASP505      0.3671
     77  OD1      -73.4630  -29.4910  -62.8340 O.co2 505  ASP505     -0.2456
     78  OD2      -72.9810  -27.7110  -64.0580 O.co2 505  ASP505     -0.2456
     79  N        -74.2650  -34.4700  -68.0150 N.3   507  GLN507     -0.1231
     80  CA       -74.7120  -35.8480  -67.8340 C.3   507  GLN507      0.1698
     81  C        -75.9850  -35.8960  -67.0160 C.2   507  GLN507      0.2592
     82  O        -76.8770  -36.6780  -67.3030 O.2   507  GLN507     -0.2718
     83  CB       -73.6480  -36.7080  -67.1450 C.3   507  GLN507      0.0381
     84  CG       -72.2050  -36.4120  -67.5420 C.3   507  GLN507      0.0905
     85  CD       -71.8580  -36.8690  -68.9490 C.2   507  GLN507      0.2608
     86  OE1      -72.7320  -37.2730  -69.7230 O.2   507  GLN507     -0.2717
     87  NE2      -70.5690  -36.8000  -69.2900 N.am  507  GLN507     -0.0878
     88  N        -76.0620  -35.0520  -65.9980 N.am  508  VAL508     -0.1980
     89  CA       -77.2090  -35.0540  -65.1140 C.3   508  VAL508      0.1595
     90  C        -78.4330  -34.3960  -65.7730 C.2   508  VAL508      0.2287
     91  O        -79.5490  -34.8790  -65.5940 O.2   508  VAL508     -0.2864
     92  CB       -76.8690  -34.4560  -63.7300 C.3   508  VAL508      0.0276
     93  CG1      -78.0670  -34.4280  -62.8270 C.3   508  VAL508      0.0022
     94  CG2      -75.8050  -35.2790  -63.0720 C.3   508  VAL508      0.0022
     95  N        -76.8690  -38.0800  -57.5330 N.3   668  ASN668     -0.1225
     96  CA       -76.0200  -37.2790  -58.4090 C.3   668  ASN668      0.1785
     97  C        -76.2440  -35.7860  -58.1990 C.2   668  ASN668      0.2597
     98  O        -75.3050  -34.9970  -58.2330 O.2   668  ASN668     -0.2718
     99  CB       -76.2980  -37.6150  -59.8740 C.3   668  ASN668      0.1169
    100  CG       -75.7810  -38.9820  -60.2800 C.2   668  ASN668      0.2627
    101  OD1      -74.9620  -39.5920  -59.5900 O.2   668  ASN668     -0.2716
    102  ND2      -76.2490  -39.4650  -61.4230 N.am  668  ASN668     -0.0877
    103  N        -77.4990  -35.4000  -57.9960 N.am  669  LEU669     -0.1980
    104  CA       -77.8450  -34.0030  -57.7960 C.3   669  LEU669      0.1596
    105  C        -77.4280  -33.4930  -56.4340 C.2   669  LEU669      0.2287
    106  O        -77.2700  -32.2900  -56.2450 O.2   669  LEU669     -0.2864
    107  CB       -79.3420  -33.7870  -57.9670 C.3   669  LEU669      0.0297
    108  CG       -79.7890  -33.7600  -59.4260 C.3   669  LEU669      0.0022
    109  CD1      -81.2830  -34.0450  -59.5160 C.3   669  LEU669      0.0001
    110  CD2      -79.4320  -32.4090  -60.0370 C.3   669  LEU669      0.0001
    111  N        -74.6030  -34.8930  -54.7700 N.3   671  GLU671     -0.1231
    112  CA       -73.1720  -34.8410  -55.0060 C.3   671  GLU671      0.1699
    113  C        -72.8180  -33.5140  -55.6960 C.2   671  GLU671      0.2592
    114  O        -71.9500  -32.7830  -55.2290 O.2   671  GLU671     -0.2718
    115  CB       -72.7230  -36.0460  -55.8350 C.3   671  GLU671      0.0402
    116  CG       -71.2700  -35.9700  -56.3220 C.3   671  GLU671      0.1161
    117  CD       -70.8720  -37.1260  -57.2320 C.2   671  GLU671      0.3649
    118  OE1      -69.9760  -36.9200  -58.0850 O.co2 671  GLU671     -0.2457
    119  OE2      -71.4530  -38.2360  -57.0970 O.co2 671  GLU671     -0.2457
    120  N        -73.5140  -33.1950  -56.7810 N.am  672  GLY672     -0.1957
    121  CA       -73.3420  -31.9150  -57.4540 C.3   672  GLY672      0.1869
    122  C        -73.4720  -30.7080  -56.5360 C.2   672  GLY672      0.2309
    123  O        -72.6320  -29.7960  -56.5680 O.2   672  GLY672     -0.2863
    124  N        -73.3200  -30.5020  -53.0680 N.3   674  LYS674     -0.1231
    125  CA       -72.2550  -30.5000  -52.0650 C.3   674  LYS674      0.1693
    126  C        -70.9420  -30.0080  -52.6890 C.2   674  LYS674      0.2592
    127  O        -70.2720  -29.1480  -52.1240 O.2   674  LYS674     -0.2718
    128  CB       -72.0830  -31.8950  -51.4520 C.3   674  LYS674      0.0285
    129  CG       -71.6330  -31.9080  -49.9840 C.3   674  LYS674      0.0035
    130  CD       -71.3410  -33.3400  -49.5160 C.3   674  LYS674      0.0206
    131  CE       -71.3330  -33.4910  -47.9910 C.3   674  LYS674      0.1093
    132  NZ       -70.1640  -32.8260  -47.3270 N.3   674  LYS674     -0.1314
    133  N        -70.6100  -30.5330  -53.8680 N.am  675  PHE675     -0.1962
    134  CA       -69.4150  -30.1240  -54.5960 C.3   675  PHE675      0.1771
    135  C        -69.3850  -28.6240  -54.8200 C.2   675  PHE675      0.2619
    136  O        -68.4070  -27.9760  -54.4870 O.2   675  PHE675     -0.2715
    137  CB       -69.3080  -30.8300  -55.9540 C.3   675  PHE675      0.0574
    138  CG       -68.2350  -30.2590  -56.8370 C.ar  675  PHE675     -0.0200
    139  CD1      -66.9310  -30.7260  -56.7550 C.ar  675  PHE675     -0.0042
    140  CD2      -68.5200  -29.2260  -57.7240 C.ar  675  PHE675     -0.0042
    141  CE1      -65.9300  -30.1820  -57.5500 C.ar  675  PHE675     -0.0003
    142  CE2      -67.5330  -28.6810  -58.5190 C.ar  675  PHE675     -0.0003
    143  CZ       -66.2290  -29.1580  -58.4320 C.ar  675  PHE675     -0.0000
    144  N        -70.4590  -28.0960  -55.4080 N.am  676  TYR676     -0.1974
    145  CA       -70.5950  -26.6710  -55.7090 C.3   676  TYR676      0.1639
    146  C        -70.6450  -25.8100  -54.4500 C.2   676  TYR676      0.2290
    147  O        -70.3050  -24.6360  -54.4960 O.2   676  TYR676     -0.2864
    148  CB       -71.8370  -26.4100  -56.5780 C.3   676  TYR676      0.0560
    149  CG       -71.6250  -26.5780  -58.0730 C.ar  676  TYR676     -0.0198
    150  CD1      -72.4640  -27.3800  -58.8250 C.ar  676  TYR676     -0.0009
    151  CD2      -70.5720  -25.9250  -58.7360 C.ar  676  TYR676     -0.0009
    152  CE1      -72.2730  -27.5340  -60.2080 C.ar  676  TYR676      0.0417
    153  CE2      -70.3770  -26.0720  -60.1120 C.ar  676  TYR676      0.0417
    154  CZ       -71.2340  -26.8790  -60.8380 C.ar  676  TYR676      0.1957
    155  OH       -71.0510  -27.0310  -62.1890 O.3   676  TYR676     -0.2866
    156  N        -69.0190  -26.7910  -51.3630 N.3   678  GLU678     -0.1231
    157  CA       -67.6750  -26.8730  -50.8210 C.3   678  GLU678      0.1699
    158  C        -66.6690  -26.1280  -51.7070 C.2   678  GLU678      0.2592
    159  O        -65.6150  -25.7150  -51.2290 O.2   678  GLU678     -0.2718
    160  CB       -67.2590  -28.3290  -50.5950 C.3   678  GLU678      0.0402
    161  CG       -66.2400  -28.4790  -49.4660 C.3   678  GLU678      0.1161
    162  CD       -66.3430  -29.7970  -48.7000 C.2   678  GLU678      0.3649
    163  OE1      -65.6070  -29.9180  -47.6880 O.co2 678  GLU678     -0.2457
    164  OE2      -67.1450  -30.6940  -49.0930 O.co2 678  GLU678     -0.2457
    165  N        -67.0100  -25.9370  -52.9820 N.am  679  LEU679     -0.1980
    166  CA       -66.1800  -25.1600  -53.8940 C.3   679  LEU679      0.1596
    167  C        -66.3060  -23.6570  -53.6560 C.2   679  LEU679      0.2287
    168  O        -65.3870  -22.8910  -53.9540 O.2   679  LEU679     -0.2864
    169  CB       -66.4950  -25.4890  -55.3580 C.3   679  LEU679      0.0297
    170  CG       -65.6420  -24.7420  -56.3930 C.3   679  LEU679      0.0022
    171  CD1      -64.1790  -25.1650  -56.3260 C.3   679  LEU679      0.0001
    172  CD2      -66.1910  -24.9260  -57.7800 C.3   679  LEU679      0.0001
    173  N        -63.7670  -22.9880  -50.8080 N.3   682  ILE682     -0.1245
    174  CA       -62.3890  -22.9110  -51.2720 C.3   682  ILE682      0.1561
    175  C        -62.1610  -21.5940  -52.0010 C.2   682  ILE682      0.2260
    176  O        -61.0960  -20.9900  -51.8680 O.2   682  ILE682     -0.2867
    177  CB       -62.0170  -24.1180  -52.2140 C.3   682  ILE682      0.0252
    178  CG1      -62.4880  -25.4720  -51.6460 C.3   682  ILE682      0.0019
    179  CG2      -60.5140  -24.1350  -52.5480 C.3   682  ILE682      0.0019
    180  CD1      -61.8610  -25.8830  -50.3260 C.3   682  ILE682      0.0001
    181  N        -61.9760  -18.2130  -49.7820 N.3   685  ARG685     -0.1245
    182  CA       -60.6040  -18.1070  -49.2890 C.3   685  ARG685      0.1563
    183  C        -59.6810  -17.5400  -50.3580 C.2   685  ARG685      0.2260
    184  O        -58.8440  -16.6690  -50.0670 O.2   685  ARG685     -0.2867
    185  CB       -60.0670  -19.4630  -48.8060 C.3   685  ARG685      0.0307
    186  CG       -60.4820  -19.8350  -47.3760 C.3   685  ARG685      0.0489
    187  CD       -59.5530  -20.8820  -46.7500 C.3   685  ARG685      0.2205
    188  NE       -59.7660  -22.2280  -47.2900 N.pl3 685  ARG685     -0.0865
    189  CZ       -60.6020  -23.1260  -46.7690 C.cat 685  ARG685      0.5346
    190  NH1      -61.3190  -22.8270  -45.6910 N.pl3 685  ARG685      0.1354
    191  NH2      -60.7340  -24.3260  -47.3280 N.pl3 685  ARG685      0.1354
@<TRIPOS>BOND
     1    86    85    2
     2    87    85   am
     3    85    84    1
     4    79    80    1
     5    60    59    1
     6    80    83    1
     7    80    81    1
     8    84    83    1
     9    82    81    2
    10    59    58    1
    11    81    88   am
    12    58    57    1
    13    73    74    2
    14    73    72    1
    15    66    67    1
    16    88    89    1
    17    52    53    1
    18    90    91    2
    19    90    89    1
    20    57    56    1
    21    53    54    1
    22    53    56    1
    23    75    72    1
    24    75    76    1
    25    72    71    1
    26    67    68    1
    27    67    70    1
    28    89    92    1
    29    71    68   am
    30    68    69    2
    31    55    54    2
    32    54    61   am
    33    63    64    2
    34    63    62    1
    35    78    76   ar
    36    61    62    1
    37    76    77   ar
    38    92    94    1
    39    92    93    1
    40    62    65    1
    41    45    46    1
    42    26    27    1
    43    48    47    2
    44    47    46    1
    45    29    28    2
    46   155   154    1
    47    46    49    1
    48    27    28    1
    49    27    30    1
    50    37    36    2
    51    36    35    1
    52    28    34   am
    53    16    14    1
    54   102   100   am
    55    11    12    2
    56    11    10    1
    57    34    35    1
    58    13    14    1
    59    13    10    1
    60   154   152   ar
    61   154   153   ar
    62    30    31    1
    63    14    15    1
    64    49    51    1
    65    49    50    1
    66    35    38    1
    67    32    31    2
    68    31    33   am
    69   100    99    1
    70   100   101    2
    71   152   150   ar
    72    10     9    1
    73   153   151   ar
    74   110   108    1
    75    38    39    1
    76    99    96    1
    77    20    19    2
    78    19    18    1
    79    17    18    1
    80   109   108    1
    81   108   107    1
    82    18    21    1
    83   150   149   ar
    84   151   149   ar
    85   142   143   ar
    86   142   140   ar
    87    39    40   ar
    88    39    41   ar
    89   143   141   ar
    90    96    97    1
    91    96    95    1
    92    98    97    2
    93    97   103   am
    94   118   117   ar
    95   149   148    1
    96   103   104    1
    97   107   104    1
    98    40    42   ar
    99   104   105    1
   100   172   170    1
   101   140   138   ar
   102    41    43   ar
   103   141   139   ar
   104    21    22    1
   105   121   120    1
   106   121   122    1
   107   117   119   ar
   108   117   116    1
   109   138   139   ar
   110   138   137    1
   111   120   113   am
   112    42    44   ar
   113   148   145    1
   114   123   122    2
   115    22    23    1
   116   105   106    2
   117   170   171    1
   118   170   169    1
   119   116   115    1
   120    43    44   ar
   121   137   134    1
   122   115   112    1
   123   145   144    1
   124   145   146    1
   125   113   114    2
   126   113   112    1
   127   144   135   am
   128   169   166    1
   129    23    25   ar
   130    23    24   ar
   131   112   111    1
   132   135   134    1
   133   135   136    2
   134   134   133    1
   135   147   146    2
   136   168   167    2
   137   166   167    1
   138   166   165    1
   139   133   126   am
   140   124   125    1
   141   165   158   am
   142     4     3    2
   143   126   127    2
   144   126   125    1
   145   179   177    1
   146     3     2    1
   147   177   178    1
   148   177   174    1
   149     5     2    1
   150     5     6    1
   151   125   128    1
   152   175   176    2
   153   175   174    1
   154   158   159    2
   155   158   157    1
   156   178   180    1
   157     2     1    1
   158   128   129    1
   159   156   157    1
   160   174   173    1
   161     8     6   am
   162     6     7    2
   163   157   160    1
   164   160   161    1
   165   183   184    2
   166   183   182    1
   167   129   130    1
   168   181   182    1
   169   130   131    1
   170   161   162    1
   171   182   185    1
   172   164   162   ar
   173   185   186    1
   174   162   163   ar
   175   131   132    1
   176   186   187    1
   177   191   189    1
   178   188   189    2
   179   188   187    1
   180   189   190    1
