@<TRIPOS>MOLECULE
tmp/2r09A02.pdb
 146 139 0 0 0
SMALL
GASTEIGER

@<TRIPOS>ATOM
      1  N         54.5670   90.5800   -3.4450 N.3   135  VAL135     -0.1245
      2  CA        55.9400   90.5180   -2.9790 C.3   135  VAL135      0.1561
      3  C         56.9260   90.2570   -4.1240 C.2   135  VAL135      0.2260
      4  O         57.9930   90.8860   -4.1810 O.2   135  VAL135     -0.2867
      5  CB        56.1110   89.4790   -1.8460 C.3   135  VAL135      0.0252
      6  CG1       57.5970   89.2330   -1.5590 C.3   135  VAL135      0.0019
      7  CG2       55.3880   89.9880   -0.5670 C.3   135  VAL135      0.0019
      8  N         57.6330   93.3470   -6.1090 N.3   138  PHE138     -0.1227
      9  CA        58.6710   94.1690   -5.5090 C.3   138  PHE138      0.1736
     10  C         60.0570   93.5620   -5.5390 C.2   138  PHE138      0.2595
     11  O         61.0370   94.2940   -5.5750 O.2   138  PHE138     -0.2718
     12  CB        58.2650   94.6580   -4.1130 C.3   138  PHE138      0.0547
     13  CG        57.3020   95.7920   -4.1730 C.ar  138  PHE138     -0.0202
     14  CD1       57.7500   97.0750   -4.4910 C.ar  138  PHE138     -0.0042
     15  CD2       55.9350   95.5700   -4.0080 C.ar  138  PHE138     -0.0042
     16  CE1       56.8450   98.1320   -4.6070 C.ar  138  PHE138     -0.0003
     17  CE2       55.0290   96.6240   -4.1110 C.ar  138  PHE138     -0.0003
     18  CZ        55.4930   97.9020   -4.4070 C.ar  138  PHE138     -0.0000
     19  N         60.1500   92.2340   -5.5510 N.am  139  ALA139     -0.1980
     20  CA        61.4460   91.5890   -5.7700 C.3   139  ALA139      0.1597
     21  C         61.9610   91.9370   -7.1690 C.2   139  ALA139      0.2287
     22  O         63.1620   92.1470   -7.3530 O.2   139  ALA139     -0.2864
     23  CB        61.3450   90.0680   -5.6030 C.3   139  ALA139      0.0319
     24  N         64.2570   84.2960   -3.4150 N.3   163  ASN163     -0.1225
     25  CA        62.8070   84.1440   -3.4440 C.3   163  ASN163      0.1785
     26  C         62.2620   82.8030   -2.9470 C.2   163  ASN163      0.2597
     27  O         61.0710   82.5110   -3.0890 O.2   163  ASN163     -0.2718
     28  CB        62.2940   84.5020   -4.8340 C.3   163  ASN163      0.1169
     29  CG        62.4180   85.9770   -5.1010 C.2   163  ASN163      0.2627
     30  OD1       61.6960   86.7790   -4.5100 O.2   163  ASN163     -0.2716
     31  ND2       63.3690   86.3550   -5.9460 N.am  163  ASN163     -0.0877
     32  N         63.1310   82.0070   -2.3270 N.am  164  ARG164     -0.1966
     33  CA        62.7130   80.7570   -1.6860 C.3   164  ARG164      0.1729
     34  C         61.5520   81.0160   -0.7320 C.2   164  ARG164      0.2617
     35  O         61.5630   81.9970    0.0220 O.2   164  ARG164     -0.2715
     36  CB        63.8670   80.1720   -0.8660 C.3   164  ARG164      0.0348
     37  CG        64.8750   79.3870   -1.6380 C.3   164  ARG164      0.0492
     38  CD        65.8760   78.7600   -0.6600 C.3   164  ARG164      0.2205
     39  NE        66.7700   77.8210   -1.3240 N.pl3 164  ARG164     -0.0865
     40  CZ        68.0940   77.9280   -1.3650 C.cat 164  ARG164      0.5346
     41  NH1       68.7110   78.9390   -0.7620 N.pl3 164  ARG164      0.1354
     42  NH2       68.8040   77.0090   -2.0030 N.pl3 164  ARG164      0.1354
     43  N         60.5480   80.1460   -0.7820 N.am  165  GLY165     -0.1940
     44  CA        59.4440   80.1840    0.1630 C.3   165  GLY165      0.2014
     45  C         58.3390   81.1850   -0.1340 C.2   165  GLY165      0.2638
     46  O         57.3610   81.2550    0.6060 O.2   165  GLY165     -0.2714
     47  N         58.4850   81.9620   -1.2110 N.am  166  ILE166     -0.1977
     48  CA        57.5800   83.0810   -1.4760 C.3   166  ILE166      0.1596
     49  C         56.1710   82.6410   -1.8770 C.2   166  ILE166      0.2287
     50  O         55.2080   83.3930   -1.7120 O.2   166  ILE166     -0.2864
     51  CB        58.1830   84.0440   -2.5500 C.3   166  ILE166      0.0276
     52  CG1       57.4730   85.4040   -2.5610 C.3   166  ILE166      0.0022
     53  CG2       58.1890   83.3980   -3.9220 C.3   166  ILE166      0.0022
     54  CD1       58.0570   86.3750   -3.5930 C.3   166  ILE166      0.0001
     55  N         64.8600  101.5100   -5.7140 N.3   203  PHE203     -0.1241
     56  CA        64.3070  100.6450   -4.6690 C.3   203  PHE203      0.1605
     57  C         65.4510   99.8170   -4.1060 C.2   203  PHE203      0.2264
     58  O         65.7730   98.7510   -4.6290 O.2   203  PHE203     -0.2867
     59  CB        63.1980   99.7630   -5.2470 C.3   203  PHE203      0.0534
     60  CG        62.3460   99.0820   -4.2050 C.ar  203  PHE203     -0.0203
     61  CD1       61.1960   99.7040   -3.7190 C.ar  203  PHE203     -0.0042
     62  CD2       62.6660   97.8140   -3.7430 C.ar  203  PHE203     -0.0042
     63  CE1       60.3930   99.0840   -2.7650 C.ar  203  PHE203     -0.0003
     64  CE2       61.8660   97.1770   -2.7770 C.ar  203  PHE203     -0.0003
     65  CZ        60.7270   97.8230   -2.2950 C.ar  203  PHE203     -0.0000
     66  N         69.2700   95.9120    4.0240 N.3   207  ASP207     -0.1239
     67  CA        69.7640   94.8700    4.9430 C.3   207  ASP207      0.1674
     68  C         71.2670   94.6930    4.7920 C.2   207  ASP207      0.2266
     69  O         71.8130   94.8520    3.7010 O.2   207  ASP207     -0.2867
     70  CB        69.0520   93.5250    4.7380 C.3   207  ASP207      0.1410
     71  CG        67.5610   93.5710    5.0790 C.2   207  ASP207      0.3668
     72  OD1       67.0560   94.5730    5.6380 O.co2 207  ASP207     -0.2456
     73  OD2       66.8880   92.5740    4.7770 O.co2 207  ASP207     -0.2456
     74  N         68.3810   92.9150    9.6290 N.3   230  THR230     -0.1203
     75  CA        67.1920   92.8070    8.7930 C.3   230  THR230      0.1994
     76  C         65.9410   92.9720    9.6410 C.2   230  THR230      0.2617
     77  O         65.9100   92.5520   10.8110 O.2   230  THR230     -0.2717
     78  CB        67.1440   91.4780    7.9740 C.3   230  THR230      0.1784
     79  OG1       66.0220   91.5110    7.0840 O.3   230  THR230     -0.2211
     80  CG2       67.0180   90.2450    8.8990 C.3   230  THR230      0.0376
     81  N         64.9340   93.6250    9.0570 N.am  231  ASP231     -0.1973
     82  CA        63.6310   93.8280    9.7050 C.3   231  ASP231      0.1709
     83  C         63.7620   94.3200   11.1620 C.2   231  ASP231      0.2293
     84  O         63.1310   93.7920   12.0800 O.2   231  ASP231     -0.2864
     85  CB        62.7830   92.5600    9.5960 C.3   231  ASP231      0.1436
     86  CG        61.2860   92.8170    9.8130 C.2   231  ASP231      0.3671
     87  OD1       60.8300   93.9750    9.6990 O.co2 231  ASP231     -0.2456
     88  OD2       60.5670   91.8320   10.0910 O.co2 231  ASP231     -0.2456
     89  N         58.9640   99.4670    3.4670 N.3   325  TYR325     -0.1241
     90  CA        59.7550   98.2930    3.8610 C.3   325  TYR325      0.1605
     91  C         58.9400   97.4770    4.8560 C.2   325  TYR325      0.2264
     92  O         58.7700   96.2780    4.6730 O.2   325  TYR325     -0.2867
     93  CB        61.1210   98.6970    4.4430 C.3   325  TYR325      0.0534
     94  CG        62.0180   97.5540    4.9480 C.ar  325  TYR325     -0.0201
     95  CD1       63.1220   97.1210    4.2050 C.ar  325  TYR325     -0.0009
     96  CD2       61.7840   96.9430    6.1880 C.ar  325  TYR325     -0.0009
     97  CE1       63.9540   96.0810    4.6710 C.ar  325  TYR325      0.0417
     98  CE2       62.6190   95.9110    6.6690 C.ar  325  TYR325      0.0417
     99  CZ        63.6990   95.4910    5.9110 C.ar  325  TYR325      0.1957
    100  OH        64.5150   94.4770    6.3790 O.3   325  TYR325     -0.2866
    101  N         55.9310   95.5860    3.3120 N.3   327  LEU327     -0.1231
    102  CA        56.4310   94.3950    2.6270 C.3   327  LEU327      0.1693
    103  C         56.7900   93.2970    3.6150 C.2   327  LEU327      0.2591
    104  O         56.4050   92.1490    3.4270 O.2   327  LEU327     -0.2718
    105  CB        57.6360   94.7310    1.7450 C.3   327  LEU327      0.0284
    106  CG        57.3080   95.2200    0.3360 C.3   327  LEU327      0.0019
    107  CD1       58.5050   95.9470   -0.2340 C.3   327  LEU327      0.0001
    108  CD2       56.8810   94.0570   -0.5760 C.3   327  LEU327      0.0001
    109  N         57.5100   93.6570    4.6800 N.am  328  ALA328     -0.1980
    110  CA        57.8090   92.7150    5.7560 C.3   328  ALA328      0.1597
    111  C         56.5450   91.9980    6.2500 C.2   328  ALA328      0.2287
    112  O         56.5320   90.7730    6.3920 O.2   328  ALA328     -0.2864
    113  CB        58.5250   93.4250    6.9080 C.3   328  ALA328      0.0319
    114  N         55.2130   89.4340    3.8060 N.3   331  LYS331     -0.1231
    115  CA        56.1000   88.2880    3.8170 C.3   331  LYS331      0.1693
    116  C         55.8180   87.3800    5.0140 C.2   331  LYS331      0.2591
    117  O         55.8750   86.1570    4.9000 O.2   331  LYS331     -0.2718
    118  CB        57.5510   88.7420    3.8230 C.3   331  LYS331      0.0285
    119  CG        57.9950   89.4120    2.5410 C.3   331  LYS331      0.0035
    120  CD        59.4120   89.8800    2.7200 C.3   331  LYS331      0.0206
    121  CE        60.0050   90.4090    1.4520 C.3   331  LYS331      0.1093
    122  NZ        61.4950   90.4220    1.6010 N.3   331  LYS331     -0.1314
    123  N         55.5090   87.9790    6.1620 N.am  332  ARG332     -0.1980
    124  CA        55.1040   87.1850    7.3230 C.3   332  ARG332      0.1597
    125  C         53.7730   86.4490    7.1200 C.2   332  ARG332      0.2287
    126  O         53.6680   85.2810    7.5100 O.2   332  ARG332     -0.2864
    127  CB        55.0940   88.0280    8.6010 C.3   332  ARG332      0.0334
    128  CG        56.4650   88.1360    9.2530 C.3   332  ARG332      0.0492
    129  CD        56.3840   88.7980   10.6230 C.3   332  ARG332      0.2205
    130  NE        55.9350   90.1870   10.5250 N.pl3 332  ARG332     -0.0865
    131  CZ        56.7370   91.2270   10.3130 C.cat 332  ARG332      0.5346
    132  NH1       58.0440   91.0520   10.1750 N.pl3 332  ARG332      0.1354
    133  NH2       56.2270   92.4450   10.2380 N.pl3 332  ARG332      0.1354
    134  N         52.5970   85.4620    4.2400 N.3   334  ILE334     -0.1231
    135  CA        52.8950   84.4070    3.2710 C.3   334  ILE334      0.1692
    136  C         53.3510   83.1370    4.0020 C.2   334  ILE334      0.2591
    137  O         52.8360   82.0520    3.7380 O.2   334  ILE334     -0.2718
    138  CB        53.9660   84.8380    2.2250 C.3   334  ILE334      0.0266
    139  CG1       53.3670   85.7990    1.1930 C.3   334  ILE334      0.0019
    140  CG2       54.5510   83.6210    1.5000 C.3   334  ILE334      0.0020
    141  CD1       54.3960   86.4490    0.2830 C.3   334  ILE334      0.0001
    142  N         54.3040   83.2880    4.9250 N.am  335  ALA335     -0.1980
    143  CA        54.9340   82.1500    5.6110 C.3   335  ALA335      0.1597
    144  C         54.0200   81.4790    6.6360 C.2   335  ALA335      0.2287
    145  O         52.8670   81.8780    6.8110 O.2   335  ALA335     -0.2864
    146  CB        56.2430   82.5850    6.2760 C.3   335  ALA335      0.0319
@<TRIPOS>BOND
     1    22    21    2
     2    21    20    1
     3     8     9    1
     4    31    29   am
     5    20    23    1
     6    20    19    1
     7    55    56    1
     8    11    10    2
     9    19    10   am
    10    10     9    1
    11     9    12    1
    12    59    56    1
    13    59    60    1
    14    29    28    1
    15    29    30    2
    16    28    25    1
    17    56    57    1
    18    58    57    2
    19    16    14   ar
    20    16    18   ar
    21    14    13   ar
    22    18    17   ar
    23    60    62   ar
    24    60    61   ar
    25     4     3    2
    26    13    12    1
    27    13    15   ar
    28     3     2    1
    29    17    15   ar
    30    53    51    1
    31    62    64   ar
    32    61    63   ar
    33    54    52    1
    34     1     2    1
    35    25    24    1
    36    25    26    1
    37    27    26    2
    38     2     5    1
    39    26    32   am
    40    64    65   ar
    41    63    65   ar
    42    52    51    1
    43    51    48    1
    44    32    33    1
    45    42    40    1
    46    49    50    2
    47    49    48    1
    48     5     6    1
    49     5     7    1
    50    33    36    1
    51    33    34    1
    52    37    36    1
    53    37    38    1
    54    48    47    1
    55    40    39    2
    56    40    41    1
    57    39    38    1
    58    47    45   am
    59    43    34   am
    60    43    44    1
    61    34    35    2
    62   108   106    1
    63   107   106    1
    64    45    44    1
    65    45    46    2
    66   141   139    1
    67   106   105    1
    68   139   138    1
    69   121   122    1
    70   121   120    1
    71   140   138    1
    72   105   102    1
    73   138   135    1
    74   119   120    1
    75   119   118    1
    76   102   101    1
    77   102   103    1
    78   135   136    1
    79   135   134    1
    80   104   103    2
    81    89    90    1
    82   103   109   am
    83    69    68    2
    84   137   136    2
    85   114   115    1
    86   115   118    1
    87   115   116    1
    88    90    93    1
    89    90    91    1
    90   136   142   am
    91    66    67    1
    92    95    97   ar
    93    95    94   ar
    94    93    94    1
    95    97    99   ar
    96    92    91    2
    97   109   110    1
    98    70    67    1
    99    70    71    1
   100    73    71   ar
   101    68    67    1
   102   117   116    2
   103   142   143    1
   104    94    96   ar
   105   116   123   am
   106    71    72   ar
   107   143   146    1
   108   143   144    1
   109   110   111    1
   110   110   113    1
   111    99   100    1
   112    99    98   ar
   113   123   124    1
   114    96    98   ar
   115   111   112    2
   116   144   145    2
   117    79    78    1
   118   125   124    1
   119   125   126    2
   120   124   127    1
   121    78    75    1
   122    78    80    1
   123   127   128    1
   124    75    74    1
   125    75    76    1
   126    81    76   am
   127    81    82    1
   128   128   129    1
   129    85    82    1
   130    85    86    1
   131    76    77    2
   132    87    86   ar
   133    82    83    1
   134    86    88   ar
   135   132   131    1
   136   133   131    1
   137   131   130    2
   138   130   129    1
   139    83    84    2
