@<TRIPOS>MOLECULE
tmp/2r0dA01.pdb
 107 103 0 0 0
SMALL
GASTEIGER

@<TRIPOS>ATOM
      1  N        -25.8250    1.5120    6.2340 N.3   142  PHE142     -0.1227
      2  CA       -24.8110    0.6730    5.6270 C.3   142  PHE142      0.1736
      3  C        -23.4290    1.2780    5.6120 C.2   142  PHE142      0.2595
      4  O        -22.4470    0.5530    5.5140 O.2   142  PHE142     -0.2718
      5  CB       -25.2570    0.1630    4.2480 C.3   142  PHE142      0.0547
      6  CG       -26.2260   -0.9770    4.3440 C.ar  142  PHE142     -0.0202
      7  CD1      -25.7680   -2.2600    4.6280 C.ar  142  PHE142     -0.0042
      8  CD2      -27.5970   -0.7610    4.2060 C.ar  142  PHE142     -0.0042
      9  CE1      -26.6550   -3.3100    4.7510 C.ar  142  PHE142     -0.0003
     10  CE2      -28.4920   -1.8130    4.3260 C.ar  142  PHE142     -0.0003
     11  CZ       -28.0230   -3.0840    4.5990 C.ar  142  PHE142     -0.0000
     12  N        -23.3290    2.5990    5.7250 N.am  143  ALA143     -0.1980
     13  CA       -22.0090    3.2150    5.8550 C.3   143  ALA143      0.1597
     14  C        -21.4470    2.9020    7.2490 C.2   143  ALA143      0.2287
     15  O        -20.2420    2.6860    7.4130 O.2   143  ALA143     -0.2864
     16  CB       -22.0790    4.7150    5.6180 C.3   143  ALA143      0.0319
     17  N        -20.4550   -0.7850    7.2050 N.3   146  MET146     -0.1245
     18  CA       -19.1520   -0.9010    6.5260 C.3   146  MET146      0.1570
     19  C        -17.9850   -0.4210    7.3950 C.2   146  MET146      0.2261
     20  O        -16.8840   -1.0070    7.3800 O.2   146  MET146     -0.2867
     21  CB       -19.1670   -0.1540    5.1920 C.3   146  MET146      0.0387
     22  CG       -17.8870   -0.2960    4.3720 C.3   146  MET146      0.0595
     23  SD       -18.1050    0.1320    2.6250 S.3   146  MET146     -0.1393
     24  CE       -18.1760    1.9120    2.7190 C.3   146  MET146      0.0692
     25  N        -18.6510   -6.7640    5.7990 N.3   209  PHE209     -0.1241
     26  CA       -19.2460   -5.9110    4.7710 C.3   209  PHE209      0.1605
     27  C        -18.1250   -5.0580    4.1920 C.2   209  PHE209      0.2264
     28  O        -17.8060   -3.9880    4.7140 O.2   209  PHE209     -0.2867
     29  CB       -20.3930   -5.0710    5.3420 C.3   209  PHE209      0.0534
     30  CG       -21.1930   -4.3280    4.2910 C.ar  209  PHE209     -0.0203
     31  CD1      -22.2280   -4.9610    3.6030 C.ar  209  PHE209     -0.0042
     32  CD2      -20.9160   -3.0000    3.9980 C.ar  209  PHE209     -0.0042
     33  CE1      -22.9640   -4.2810    2.6240 C.ar  209  PHE209     -0.0003
     34  CE2      -21.6470   -2.3110    3.0230 C.ar  209  PHE209     -0.0003
     35  CZ       -22.6730   -2.9520    2.3430 C.ar  209  PHE209     -0.0000
     36  N        -15.6360   -3.0930    1.2460 N.3   211  ASN211     -0.1226
     37  CA       -15.6860   -2.1320    0.1620 C.3   211  ASN211      0.1770
     38  C        -14.8650   -2.6800   -1.0040 C.2   211  ASN211      0.2439
     39  O        -13.6450   -2.8460   -0.8720 O.2   211  ASN211     -0.2733
     40  CB       -15.1290   -0.7960    0.6650 C.3   211  ASN211      0.1168
     41  CG       -14.9580    0.2410   -0.4310 C.2   211  ASN211      0.2627
     42  OD1      -15.5960    0.1870   -1.4890 O.2   211  ASN211     -0.2716
     43  ND2      -14.0820    1.2120   -0.1700 N.am  211  ASN211     -0.0877
     44  N        -15.5290   -2.9810   -2.1420 N.am  212  PRO212     -0.2718
     45  CA       -14.8360   -3.5640   -3.2930 C.3   212  PRO212      0.1535
     46  C        -14.1370   -2.5540   -4.1990 C.2   212  PRO212      0.2598
     47  O        -13.3900   -2.9610   -5.0870 O.2   212  PRO212     -0.2715
     48  CB       -15.9710   -4.2560   -4.0550 C.3   212  PRO212      0.0310
     49  CG       -17.1360   -3.4010   -3.8120 C.3   212  PRO212      0.0237
     50  CD       -16.9700   -2.8140   -2.4140 C.3   212  PRO212      0.0939
     51  N        -14.3650   -1.2590   -3.9720 N.am  213  ASP213     -0.1972
     52  CA       -13.8260   -0.2160   -4.8420 C.3   213  ASP213      0.1709
     53  C        -12.3120   -0.0600   -4.6900 C.2   213  ASP213      0.2293
     54  O        -11.7750   -0.1580   -3.5890 O.2   213  ASP213     -0.2864
     55  CB       -14.5130    1.1310   -4.5800 C.3   213  ASP213      0.1436
     56  CG       -15.9870    1.1370   -4.9630 C.2   213  ASP213      0.3671
     57  OD1      -16.5270    0.1300   -5.4680 O.co2 213  ASP213     -0.2456
     58  OD2      -16.6220    2.1780   -4.7500 O.co2 213  ASP213     -0.2456
     59  N        -15.1360    1.7650   -9.4930 N.3   236  THR236     -0.1203
     60  CA       -16.3370    1.8770   -8.6630 C.3   236  THR236      0.1994
     61  C        -17.5720    1.6630   -9.5260 C.2   236  THR236      0.2617
     62  O        -17.5960    2.0340  -10.7060 O.2   236  THR236     -0.2717
     63  CB       -16.4160    3.2420   -7.8860 C.3   236  THR236      0.1784
     64  OG1      -17.5270    3.2230   -6.9770 O.3   236  THR236     -0.2211
     65  CG2      -16.5590    4.4420   -8.8390 C.3   236  THR236      0.0376
     66  N        -18.5820    1.0360   -8.9430 N.am  237  ASP237     -0.1973
     67  CA       -19.8570    0.8030   -9.6160 C.3   237  ASP237      0.1709
     68  C        -19.7390    0.3040  -11.0810 C.2   237  ASP237      0.2293
     69  O        -20.4190    0.8100  -11.9870 O.2   237  ASP237     -0.2864
     70  CB       -20.7410    2.0490   -9.5150 C.3   237  ASP237      0.1436
     71  CG       -22.2160    1.7340   -9.7110 C.2   237  ASP237      0.3671
     72  OD1      -22.6190    0.5560   -9.5650 O.co2 237  ASP237     -0.2456
     73  OD2      -22.9740    2.6690  -10.0090 O.co2 237  ASP237     -0.2456
     74  N        -24.8500   -4.7430   -3.3760 N.3   332  TYR332     -0.1241
     75  CA       -24.0650   -3.5480   -3.6980 C.3   332  TYR332      0.1605
     76  C        -24.7960   -2.6970   -4.7330 C.2   332  TYR332      0.2264
     77  O        -24.9290   -1.4850   -4.5570 O.2   332  TYR332     -0.2867
     78  CB       -22.6700   -3.9510   -4.1990 C.3   332  TYR332      0.0534
     79  CG       -21.7730   -2.8430   -4.7540 C.ar  332  TYR332     -0.0201
     80  CD1      -20.7320   -2.3260   -3.9900 C.ar  332  TYR332     -0.0009
     81  CD2      -21.9290   -2.3580   -6.0680 C.ar  332  TYR332     -0.0009
     82  CE1      -19.8770   -1.3330   -4.4950 C.ar  332  TYR332      0.0417
     83  CE2      -21.0690   -1.3540   -6.5900 C.ar  332  TYR332      0.0417
     84  CZ       -20.0410   -0.8530   -5.7920 C.ar  332  TYR332      0.1957
     85  OH       -19.1720    0.1300   -6.2570 O.3   332  TYR332     -0.2866
     86  N        -27.7930   -0.8510   -3.2850 N.3   335  LEU335     -0.1231
     87  CA       -27.2370    0.2920   -2.5470 C.3   335  LEU335      0.1693
     88  C        -26.8450    1.4170   -3.4950 C.2   335  LEU335      0.2591
     89  O        -27.1520    2.5730   -3.2350 O.2   335  LEU335     -0.2718
     90  CB       -26.0310   -0.1300   -1.7080 C.3   335  LEU335      0.0284
     91  CG       -26.2620   -0.4060   -0.2230 C.3   335  LEU335      0.0019
     92  CD1      -25.0050   -1.0050    0.3800 C.3   335  LEU335      0.0001
     93  CD2      -26.6600    0.8890    0.5190 C.3   335  LEU335      0.0001
     94  N        -26.1720    1.0710   -4.5980 N.am  336  ALA336     -0.1980
     95  CA       -25.7970    2.0560   -5.6170 C.3   336  ALA336      0.1597
     96  C        -27.0200    2.8000   -6.1670 C.2   336  ALA336      0.2287
     97  O        -26.9810    4.0210   -6.3650 O.2   336  ALA336     -0.2864
     98  CB       -25.0110    1.3950   -6.7440 C.3   336  ALA336      0.0319
     99  N        -28.2960    5.3960   -3.7110 N.3   339  LYS339     -0.1245
    100  CA       -27.3650    6.5100   -3.7370 C.3   339  LYS339      0.1561
    101  C        -27.6530    7.4760   -4.8960 C.2   339  LYS339      0.2260
    102  O        -27.6950    8.6890   -4.6900 O.2   339  LYS339     -0.2867
    103  CB       -25.9260    6.0090   -3.7840 C.3   339  LYS339      0.0271
    104  CG       -25.4340    5.4110   -2.4810 C.3   339  LYS339      0.0035
    105  CD       -24.0120    4.9070   -2.6510 C.3   339  LYS339      0.0206
    106  CE       -23.4440    4.3830   -1.3460 C.3   339  LYS339      0.1093
    107  NZ       -21.9610    4.1910   -1.4110 N.3   339  LYS339     -0.1314
@<TRIPOS>BOND
     1    69    68    2
     2    68    67    1
     3    62    61    2
     4    73    71   ar
     5    71    72   ar
     6    71    70    1
     7    67    70    1
     8    67    66    1
     9    61    66   am
    10    61    60    1
    11    59    60    1
    12    65    63    1
    13    60    63    1
    14    63    64    1
    15    98    95    1
    16    83    81   ar
    17    83    84   ar
    18    97    96    2
    19    85    84    1
    20    96    95    1
    21    81    79   ar
    22    84    82   ar
    23    95    94    1
    24    57    56   ar
    25    47    46    2
    26    56    58   ar
    27    56    55    1
    28   101   102    2
    29   101   100    1
    30    52    53    1
    31    52    55    1
    32    52    51    1
    33    79    78    1
    34    79    80   ar
    35    76    77    2
    36    76    75    1
    37    53    54    2
    38    94    88   am
    39    82    80   ar
    40    78    75    1
    41    46    51   am
    42    46    45    1
    43    48    49    1
    44    48    45    1
    45    49    50    1
    46   103   100    1
    47   103   104    1
    48   100    99    1
    49    75    74    1
    50    88    89    2
    51    88    87    1
    52    45    44    1
    53    86    87    1
    54   105   104    1
    55   105   106    1
    56    87    90    1
    57    50    44    1
    58    44    38   am
    59    90    91    1
    60    42    41    2
    61   107   106    1
    62    38    39    2
    63    38    37    1
    64    41    43   am
    65    41    40    1
    66    91    92    1
    67    91    93    1
    68    37    40    1
    69    37    36    1
    70    35    33   ar
    71    35    34   ar
    72    33    31   ar
    73    23    24    1
    74    23    22    1
    75    34    32   ar
    76    31    30   ar
    77    32    30   ar
    78    27    28    2
    79    27    26    1
    80     8    10   ar
    81     8     6   ar
    82     5     6    1
    83     5     2    1
    84    30    29    1
    85    10    11   ar
    86     6     7   ar
    87    22    21    1
    88    11     9   ar
    89     7     9   ar
    90    26    29    1
    91    26    25    1
    92    21    18    1
    93     4     3    2
    94     3     2    1
    95     3    12   am
    96    16    13    1
    97     2     1    1
    98    12    13    1
    99    13    14    1
   100    18    17    1
   101    18    19    1
   102    14    15    2
   103    20    19    2
