@<TRIPOS>MOLECULE
tmp/2r0gA01.pdb
 201 195 0 0 0
SMALL
GASTEIGER

@<TRIPOS>ATOM
      1  N        -10.9730   21.7380   41.1550 N.3    44  ARG44      -0.1231
      2  CA        -9.6470   21.1790   40.9430 C.3    44  ARG44       0.1694
      3  C         -8.9520   20.9360   42.2900 C.2    44  ARG44       0.2592
      4  O         -8.6690   19.7890   42.6360 O.2    44  ARG44      -0.2718
      5  CB        -8.7860   22.0940   40.0650 C.3    44  ARG44       0.0321
      6  CG        -8.1520   21.3640   38.8820 C.3    44  ARG44       0.0489
      7  CD        -6.9370   22.0710   38.3050 C.3    44  ARG44       0.2205
      8  NE        -7.1350   23.5040   38.1270 N.pl3  44  ARG44      -0.0865
      9  CZ        -6.3100   24.2860   37.4370 C.cat  44  ARG44       0.5346
     10  NH1       -5.2360   23.7680   36.8550 N.pl3  44  ARG44       0.1354
     11  NH2       -6.5470   25.5900   37.3450 N.pl3  44  ARG44       0.1354
     12  N         -8.6860   22.0040   43.0490 N.am   45  VAL45      -0.1966
     13  CA        -8.0260   21.8490   44.3420 C.3    45  VAL45       0.1727
     14  C         -8.9900   21.3540   45.4210 C.2    45  VAL45       0.2617
     15  O        -10.1550   21.7670   45.4860 O.2    45  VAL45      -0.2715
     16  CB        -7.3720   23.1820   44.8640 C.3    45  VAL45       0.0290
     17  CG1       -6.5820   23.8650   43.7570 C.3    45  VAL45       0.0023
     18  CG2       -8.4180   24.0960   45.4260 C.3    45  VAL45       0.0023
     19  N         -8.4900   20.4630   46.2650 N.am   46  GLY46      -0.1940
     20  CA        -9.2950   19.9300   47.3460 C.3    46  GLY46       0.2014
     21  C         -8.5930   20.0410   48.6950 C.2    46  GLY46       0.2639
     22  O         -9.2390   20.2070   49.7240 O.2    46  GLY46      -0.2714
     23  N         -7.2680   19.9600   48.6910 N.am   47  THR47      -0.1950
     24  CA        -6.4970   20.0390   49.9180 C.3    47  THR47       0.1897
     25  C         -5.7520   21.3570   50.0840 C.2    47  THR47       0.2313
     26  O         -4.9600   21.7440   49.2270 O.2    47  THR47      -0.2863
     27  CB        -5.4450   18.9270   49.9860 C.3    47  THR47       0.1794
     28  OG1       -6.0570   17.6760   49.6910 O.3    47  THR47      -0.2208
     29  CG2       -4.8280   18.8620   51.3840 C.3    47  THR47       0.0378
     30  N         -4.2730   13.2090   31.1490 N.3   193  PHE193     -0.1241
     31  CA        -5.2530   12.5410   31.9930 C.3   193  PHE193      0.1605
     32  C         -6.6710   13.0360   31.7540 C.2   193  PHE193      0.2264
     33  O         -6.8990   14.0630   31.1170 O.2   193  PHE193     -0.2867
     34  CB        -4.9470   12.7800   33.4810 C.3   193  PHE193      0.0534
     35  CG        -3.6360   12.2290   33.9310 C.ar  193  PHE193     -0.0203
     36  CD1       -2.4580   12.9050   33.6690 C.ar  193  PHE193     -0.0042
     37  CD2       -3.5770   11.0150   34.6090 C.ar  193  PHE193     -0.0042
     38  CE1       -1.2380   12.3800   34.0760 C.ar  193  PHE193     -0.0003
     39  CE2       -2.3620   10.4830   35.0190 C.ar  193  PHE193     -0.0003
     40  CZ        -1.1900   11.1640   34.7540 C.ar  193  PHE193     -0.0000
     41  N        -10.2750   13.6200   34.0920 N.3   195  ASN195     -0.1240
     42  CA       -10.8480   13.6640   35.4320 C.3   195  ASN195      0.1653
     43  C        -12.3600   13.6640   35.3280 C.2   195  ASN195      0.2266
     44  O        -12.9580   14.5680   34.7380 O.2   195  ASN195     -0.2867
     45  CB       -10.3750   14.9050   36.1910 C.3   195  ASN195      0.1155
     46  CG        -9.1120   14.6430   37.0070 C.2   195  ASN195      0.2627
     47  OD1       -8.3350   13.7350   36.7000 O.2   195  ASN195     -0.2716
     48  ND2       -8.8980   15.4460   38.0420 N.am  195  ASN195     -0.0877
     49  N         -8.7390    9.1790   49.6820 N.3   214  PHE214     -0.1241
     50  CA        -8.0830    8.8020   48.4280 C.3   214  PHE214      0.1605
     51  C         -8.1010    7.2970   48.2050 C.2   214  PHE214      0.2264
     52  O         -7.7770    6.5340   49.1040 O.2   214  PHE214     -0.2867
     53  CB        -6.6040    9.2150   48.3970 C.3   214  PHE214      0.0534
     54  CG        -6.3740   10.6880   48.3800 C.ar  214  PHE214     -0.0203
     55  CD1       -6.1170   11.3730   49.5600 C.ar  214  PHE214     -0.0042
     56  CD2       -6.3860   11.3880   47.1780 C.ar  214  PHE214     -0.0042
     57  CE1       -5.8690   12.7510   49.5470 C.ar  214  PHE214     -0.0003
     58  CE2       -6.1430   12.7580   47.1500 C.ar  214  PHE214     -0.0003
     59  CZ        -5.8820   13.4440   48.3430 C.ar  214  PHE214     -0.0000
     60  N         -6.3450    4.8240   45.6890 N.3   216  PHE216     -0.1241
     61  CA        -5.4030    4.6360   44.6000 C.3   216  PHE216      0.1605
     62  C         -5.7530    3.2940   43.9730 C.2   216  PHE216      0.2264
     63  O         -5.6190    2.2390   44.6070 O.2   216  PHE216     -0.2867
     64  CB        -3.9600    4.6170   45.1100 C.3   216  PHE216      0.0534
     65  CG        -3.1280    5.7600   44.6080 C.ar  216  PHE216     -0.0203
     66  CD1       -2.5690    6.6740   45.4940 C.ar  216  PHE216     -0.0042
     67  CD2       -2.9050    5.9260   43.2440 C.ar  216  PHE216     -0.0042
     68  CE1       -1.7970    7.7410   45.0370 C.ar  216  PHE216     -0.0003
     69  CE2       -2.1320    6.9920   42.7710 C.ar  216  PHE216     -0.0003
     70  CZ        -1.5770    7.9030   43.6780 C.ar  216  PHE216     -0.0000
     71  N         -4.6500    5.2620   39.1540 N.3   225  PHE225     -0.1228
     72  CA        -4.6430    6.5880   39.7400 C.3   225  PHE225      0.1721
     73  C         -5.7700    6.8060   40.7380 C.2   225  PHE225      0.2437
     74  O         -6.7540    6.0610   40.7640 O.2   225  PHE225     -0.2733
     75  CB        -4.6450    7.6070   38.6040 C.3   225  PHE225      0.0547
     76  CG        -3.5570    7.3470   37.5960 C.ar  225  PHE225     -0.0202
     77  CD1       -2.2240    7.5230   37.9430 C.ar  225  PHE225     -0.0042
     78  CD2       -3.8580    6.8230   36.3350 C.ar  225  PHE225     -0.0042
     79  CE1       -1.1990    7.1780   37.0580 C.ar  225  PHE225     -0.0003
     80  CE2       -2.8440    6.4750   35.4450 C.ar  225  PHE225     -0.0003
     81  CZ        -1.5080    6.6500   35.8060 C.ar  225  PHE225     -0.0000
     82  N         -5.6420    7.8420   41.5770 N.am  226  PRO226     -0.2729
     83  CA        -6.6410    8.1520   42.6020 C.3   226  PRO226      0.1401
     84  C         -8.0690    8.4940   42.2210 C.2   226  PRO226      0.2269
     85  O         -8.3240    9.1180   41.2030 O.2   226  PRO226     -0.2865
     86  CB        -5.9780    9.2890   43.3850 C.3   226  PRO226      0.0296
     87  CG        -5.1920    9.9900   42.3270 C.3   226  PRO226      0.0237
     88  CD        -4.5740    8.8580   41.5610 C.3   226  PRO226      0.0939
     89  N        -10.8770   10.3470   44.2170 N.3   228  ARG228     -0.1245
     90  CA       -11.0050   11.1740   45.4200 C.3   228  ARG228      0.1563
     91  C        -12.4160   11.5430   45.8770 C.2   228  ARG228      0.2260
     92  O        -13.2840   11.8610   45.0660 O.2   228  ARG228     -0.2867
     93  CB       -10.1980   12.4570   45.2110 C.3   228  ARG228      0.0307
     94  CG       -10.2610   13.4320   46.3640 C.3   228  ARG228      0.0489
     95  CD        -9.4390   14.6960   46.1030 C.3   228  ARG228      0.2205
     96  NE        -9.5470   15.5900   47.2520 N.pl3 228  ARG228     -0.0865
     97  CZ        -8.5260   16.2320   47.8080 C.cat 228  ARG228      0.5346
     98  NH1       -7.3010   16.0930   47.3230 N.pl3 228  ARG228      0.1354
     99  NH2       -8.7300   16.9860   48.8740 N.pl3 228  ARG228      0.1354
    100  N        -14.2980   12.1580   42.3840 N.3   237  ARG237     -0.1245
    101  CA       -13.5520   12.4560   41.1720 C.3   237  ARG237      0.1563
    102  C        -12.5840   11.3250   40.8610 C.2   237  ARG237      0.2260
    103  O        -11.7850   10.9240   41.7080 O.2   237  ARG237     -0.2867
    104  CB       -12.7720   13.7660   41.3280 C.3   237  ARG237      0.0307
    105  CG       -12.2470   14.3610   40.0120 C.3   237  ARG237      0.0489
    106  CD       -11.4560   15.6460   40.2800 C.3   237  ARG237      0.2205
    107  NE       -10.2320   15.3700   41.0310 N.pl3 237  ARG237     -0.0865
    108  CZ        -9.5830   16.2670   41.7690 C.cat 237  ARG237      0.5346
    109  NH1      -10.0350   17.5090   41.8620 N.pl3 237  ARG237      0.1354
    110  NH2       -8.4880   15.9150   42.4280 N.pl3 237  ARG237      0.1354
    111  N         -9.5170   10.0540   38.3470 N.3   239  THR239     -0.1218
    112  CA        -8.5750   10.4750   37.3210 C.3   239  THR239      0.1862
    113  C         -8.1080    9.2290   36.5760 C.2   239  THR239      0.2287
    114  O         -7.7960    8.2010   37.1830 O.2   239  THR239     -0.2866
    115  CB        -7.3510   11.2810   37.8960 C.3   239  THR239      0.1770
    116  OG1       -6.1220   10.6230   37.5540 O.3   239  THR239     -0.2211
    117  CG2       -7.4540   11.4490   39.3800 C.3   239  THR239      0.0375
    118  N         -6.7450   16.9830   30.9710 N.3   269  TRP269     -0.1241
    119  CA        -5.7170   17.9190   31.3950 C.3   269  TRP269      0.1605
    120  C         -4.3210   17.3440   31.2080 C.2   269  TRP269      0.2264
    121  O         -4.1430   16.1290   31.0770 O.2   269  TRP269     -0.2867
    122  CB        -5.9160   18.3090   32.8730 C.3   269  TRP269      0.0550
    123  CG        -5.9600   17.1400   33.8360 C.ar  269  TRP269      0.0003
    124  CD1       -6.9950   16.2580   34.0180 C.ar  269  TRP269      0.0946
    125  CD2       -4.9270   16.7300   34.7430 C.ar  269  TRP269      0.0152
    126  NE1       -6.6710   15.3340   34.9800 N.ar  269  TRP269     -0.2442
    127  CE2       -5.4080   15.5990   35.4420 C.ar  269  TRP269      0.0810
    128  CE3       -3.6410   17.2050   35.0320 C.ar  269  TRP269      0.0012
    129  CZ2       -4.6440   14.9370   36.4120 C.ar  269  TRP269      0.0191
    130  CZ3       -2.8830   16.5450   35.9960 C.ar  269  TRP269      0.0001
    131  CH2       -3.3850   15.4270   36.6720 C.ar  269  TRP269      0.0015
    132  N         -0.5070   17.0630   32.8530 N.3   271  LEU271     -0.1245
    133  CA         0.2740   17.2180   34.0690 C.3   271  LEU271      0.1561
    134  C          1.6520   17.5760   33.5430 C.2   271  LEU271      0.2260
    135  O          2.2570   16.8100   32.7980 O.2   271  LEU271     -0.2867
    136  CB         0.2720   15.9170   34.8790 C.3   271  LEU271      0.0270
    137  CG         1.5220   15.1360   35.2970 C.3   271  LEU271      0.0019
    138  CD1        2.5650   16.0270   35.9100 C.3   271  LEU271      0.0001
    139  CD2        1.0970   14.0620   36.2920 C.3   271  LEU271      0.0001
    140  N          3.6550   18.2240   39.0850 N.3   295  SER295     -0.1203
    141  CA         2.7170   17.1140   39.1780 C.3   295  SER295      0.2005
    142  C          1.9170   17.2880   40.4630 C.2   295  SER295      0.2461
    143  O          2.4750   17.6480   41.5030 O.2   295  SER295     -0.2732
    144  CB         3.4700   15.7860   39.2070 C.3   295  SER295      0.2103
    145  OG         2.6080   14.7260   39.5760 O.3   295  SER295     -0.2182
    146  N          0.5950   17.0550   40.4070 N.am  296  PRO296     -0.2717
    147  CA        -0.2670   17.1930   41.5850 C.3   296  PRO296      0.1536
    148  C         -0.0610   16.1110   42.6520 C.2   296  PRO296      0.2599
    149  O         -0.7470   16.1060   43.6750 O.2   296  PRO296     -0.2715
    150  CB        -1.6700   17.1630   40.9790 C.3   296  PRO296      0.0310
    151  CG        -1.5000   16.2320   39.8160 C.3   296  PRO296      0.0237
    152  CD        -0.2110   16.7490   39.2120 C.3   296  PRO296      0.0939
    153  N          0.8840   15.2030   42.4190 N.am  297  SER297     -0.1936
    154  CA         1.1540   14.1300   43.3690 C.3   297  SER297      0.2055
    155  C          1.8480   14.6990   44.5950 C.2   297  SER297      0.2644
    156  O          3.0640   14.8910   44.6040 O.2   297  SER297     -0.2714
    157  CB         2.0200   13.0410   42.7180 C.3   297  SER297      0.2130
    158  OG         3.1230   13.6120   42.0330 O.3   297  SER297     -0.2179
    159  N          1.0550   14.9630   45.6260 N.am  298  GLY298     -0.1939
    160  CA         1.5670   15.5440   46.8540 C.3   298  GLY298      0.2014
    161  C          0.7010   16.7280   47.2540 C.2   298  GLY298      0.2639
    162  O          0.6000   17.0750   48.4320 O.2   298  GLY298     -0.2714
    163  N          0.0620   17.3460   46.2650 N.am  299  GLY299     -0.1954
    164  CA        -0.7920   18.4920   46.5240 C.3   299  GLY299      0.1869
    165  C         -0.0010   19.7520   46.8270 C.2   299  GLY299      0.2309
    166  O         -0.3960   20.5270   47.6890 O.2   299  GLY299     -0.2863
    167  N          5.1960   10.9490   41.8210 N.3   351  LEU351     -0.1245
    168  CA         4.6090   10.5090   40.5590 C.3   351  LEU351      0.1561
    169  C          5.2410    9.2190   40.0220 C.2   351  LEU351      0.2260
    170  O          4.5350    8.2420   39.7450 O.2   351  LEU351     -0.2867
    171  CB         4.7150   11.6110   39.4970 C.3   351  LEU351      0.0270
    172  CG         4.0800   11.2070   38.1540 C.3   351  LEU351      0.0019
    173  CD1        2.6100   10.8790   38.3660 C.3   351  LEU351      0.0001
    174  CD2        4.2400   12.3220   37.1270 C.3   351  LEU351      0.0001
    175  N          4.2930    5.6930   41.5330 N.3   354  THR354     -0.1218
    176  CA         3.1260    4.9170   41.1200 C.3   354  THR354      0.1862
    177  C          3.1660    4.6190   39.6210 C.2   354  THR354      0.2287
    178  O          2.4330    3.7580   39.1360 O.2   354  THR354     -0.2866
    179  CB         1.7710    5.6180   41.4580 C.3   354  THR354      0.1770
    180  OG1        1.4230    6.5500   40.4270 O.3   354  THR354     -0.2211
    181  CG2        1.8560    6.3240   42.7880 C.3   354  THR354      0.0375
    182  N          3.9990   10.7010   50.1130 N.3   389  GLU389     -0.1231
    183  CA         3.1770   11.4960   49.2160 C.3   389  GLU389      0.1699
    184  C          2.0570   12.1820   49.9750 C.2   389  GLU389      0.2592
    185  O          1.5400   13.2040   49.5390 O.2   389  GLU389     -0.2718
    186  CB         2.5870   10.6150   48.1060 C.3   389  GLU389      0.0402
    187  CG         1.5380   11.3160   47.2490 C.3   389  GLU389      0.1161
    188  CD         1.2160   10.5720   45.9650 C.2   389  GLU389      0.3649
    189  OE1        1.6770    9.4190   45.8050 O.co2 389  GLU389     -0.2457
    190  OE2        0.4970   11.1370   45.1120 O.co2 389  GLU389     -0.2457
    191  N          1.6890   11.6130   51.1140 N.am  390  PHE390     -0.1976
    192  CA         0.6180   12.1630   51.9300 C.3   390  PHE390      0.1639
    193  C          1.1190   12.7420   53.2490 C.2   390  PHE390      0.2290
    194  O          0.3300   13.0180   54.1440 O.2   390  PHE390     -0.2864
    195  CB        -0.4350   11.0810   52.1820 C.3   390  PHE390      0.0560
    196  CG        -1.0620   10.5640   50.9240 C.ar  390  PHE390     -0.0200
    197  CD1       -2.0580   11.2940   50.2780 C.ar  390  PHE390     -0.0042
    198  CD2       -0.5920    9.3940   50.3260 C.ar  390  PHE390     -0.0042
    199  CE1       -2.5720   10.8760   49.0540 C.ar  390  PHE390     -0.0003
    200  CE2       -1.0990    8.9720   49.1050 C.ar  390  PHE390     -0.0003
    201  CZ        -2.0940    9.7190   48.4650 C.ar  390  PHE390     -0.0000
@<TRIPOS>BOND
     1   118   119    1
     2   121   120    2
     3    33    32    2
     4    30    31    1
     5   120   119    1
     6   119   122    1
     7    32    31    1
     8    31    34    1
     9   135   134    2
    10   132   133    1
    11   122   123    1
    12    34    35    1
    13   134   133    1
    14    36    35   ar
    15    36    38   ar
    16   123   124   ar
    17   123   125   ar
    18    35    37   ar
    19   124   126   ar
    20   133   136    1
    21    38    40   ar
    22    41    42    1
    23    37    39   ar
    24    44    43    2
    25   125   128   ar
    26   125   127   ar
    27    40    39   ar
    28   136   137    1
    29   126   127   ar
    30   128   130   ar
    31   137   138    1
    32   137   139    1
    33    43    42    1
    34    42    45    1
    35   127   129   ar
    36    80    81   ar
    37    80    78   ar
    38    81    79   ar
    39   130   131   ar
    40    45    46    1
    41    78    76   ar
    42   129   131   ar
    43   113   114    2
    44   113   112    1
    45    47    46    2
    46    10     9    1
    47    46    48   am
    48    79    77   ar
    49   174   172    1
    50   112   115    1
    51   112   111    1
    52    11     9    1
    53     9     8    2
    54   116   115    1
    55    76    77   ar
    56    76    75    1
    57   115   117    1
    58     8     7    1
    59   172   173    1
    60   172   171    1
    61     7     6    1
    62    75    72    1
    63     6     5    1
    64   140   141    1
    65   178   177    2
    66    71    72    1
    67   141   144    1
    68   141   142    1
    69   144   145    1
    70   152   151    1
    71   152   146    1
    72   171   168    1
    73   177   176    1
    74    72    73    1
    75   170   169    2
    76   151   150    1
    77   105   106    1
    78   105   104    1
    79   169   168    1
    80     5     2    1
    81   106   107    1
    82   146   142   am
    83   146   147    1
    84   180   179    1
    85   142   143    2
    86   168   167    1
    87    73    74    2
    88    73    82   am
    89   102   101    1
    90   102   103    2
    91     2     1    1
    92     2     3    1
    93   150   147    1
    94   107   108    2
    95   176   179    1
    96   176   175    1
    97   101   104    1
    98   101   100    1
    99    85    84    2
   100   179   181    1
   101    88    82    1
   102    88    87    1
   103    82    83    1
   104   147   148    1
   105   108   109    1
   106   108   110    1
   107   158   157    1
   108    84    83    1
   109     3     4    2
   110     3    12   am
   111    87    86    1
   112   153   148   am
   113   153   154    1
   114    83    86    1
   115   148   149    2
   116   157   154    1
   117    69    67   ar
   118    69    70   ar
   119    12    13    1
   120    67    65   ar
   121   154   155    1
   122    70    68   ar
   123    17    16    1
   124    62    61    1
   125    62    63    2
   126    89    90    1
   127    13    16    1
   128    13    14    1
   129   155   156    2
   130   155   159   am
   131    61    64    1
   132    61    60    1
   133    65    64    1
   134    65    66   ar
   135    16    18    1
   136    68    66   ar
   137    92    91    2
   138   190   188   ar
   139    93    90    1
   140    93    94    1
   141    90    91    1
   142    14    15    2
   143    14    19   am
   144   159   160    1
   145   189   188   ar
   146   188   187    1
   147    95    94    1
   148    95    96    1
   149   163   164    1
   150   163   161   am
   151    19    20    1
   152   164   165    1
   153   165   166    2
   154   160   161    1
   155    58    56   ar
   156    58    59   ar
   157    56    54   ar
   158   187   186    1
   159    96    97    2
   160   161   162    2
   161    98    97    1
   162    20    21    1
   163    97    99    1
   164   186   183    1
   165    51    50    1
   166    51    52    2
   167    59    57   ar
   168    54    53    1
   169    54    55   ar
   170    53    50    1
   171    50    49    1
   172   201   199   ar
   173   201   200   ar
   174    23    21   am
   175    23    24    1
   176    21    22    2
   177   199   197   ar
   178   200   198   ar
   179   183   184    1
   180   183   182    1
   181    26    25    2
   182   185   184    2
   183    57    55   ar
   184    28    27    1
   185    24    27    1
   186    24    25    1
   187   184   191   am
   188    27    29    1
   189   197   196   ar
   190   198   196   ar
   191   196   195    1
   192   191   192    1
   193   192   195    1
   194   192   193    1
   195   193   194    2
