@<TRIPOS>MOLECULE
tmp/2r0hA00.pdb
 123 110 0 0 0
SMALL
GASTEIGER

@<TRIPOS>ATOM
      1  N         30.5580  -16.7870   -2.1820 N.3    41  THR41      -0.1218
      2  CA        30.2230  -15.8180   -3.2470 C.3    41  THR41       0.1862
      3  C         31.1280  -14.5910   -3.3080 C.2    41  THR41       0.2287
      4  O         31.1870  -13.8760   -4.3310 O.2    41  THR41      -0.2866
      5  CB        28.7550  -15.2950   -3.1280 C.3    41  THR41       0.1770
      6  OG1       28.6080  -14.5210   -1.9260 O.3    41  THR41      -0.2211
      7  CG2       27.7590  -16.4290   -3.1720 C.3    41  THR41       0.0375
      8  N         30.6330  -11.8470   -2.0300 N.3    43  ILE43      -0.1245
      9  CA        29.8200  -10.6140   -1.9730 C.3    43  ILE43       0.1561
     10  C         28.8050  -10.6310   -0.8130 C.2    43  ILE43       0.2260
     11  O         27.9470  -11.5130   -0.7930 O.2    43  ILE43      -0.2867
     12  CB        29.0130  -10.4470   -3.2780 C.3    43  ILE43       0.0252
     13  CG1       29.9370  -10.4750   -4.5010 C.3    43  ILE43       0.0019
     14  CG2       28.1760   -9.1920   -3.2180 C.3    43  ILE43       0.0019
     15  CD1       29.2080  -10.3520   -5.8440 C.3    43  ILE43       0.0001
     16  N         25.7450   -9.8970    0.5590 N.3    45  ASN45      -0.1240
     17  CA        24.4950   -9.4800   -0.0690 C.3    45  ASN45       0.1653
     18  C         23.2080  -10.1050    0.4730 C.2    45  ASN45       0.2266
     19  O         23.0660  -11.3230    0.4840 O.2    45  ASN45      -0.2867
     20  CB        24.6440   -9.8660   -1.5490 C.3    45  ASN45       0.1155
     21  CG        23.3630   -9.6860   -2.3440 C.2    45  ASN45       0.2627
     22  OD1       22.4150   -9.0990   -1.8570 O.2    45  ASN45      -0.2716
     23  ND2       23.3220  -10.2330   -3.5470 N.am   45  ASN45      -0.0877
     24  N         19.0700   -9.2920    0.2600 N.3    47  ASN47      -0.1240
     25  CA        18.1550   -8.5370   -0.5850 C.3    47  ASN47       0.1653
     26  C         16.6810   -8.9010   -0.4370 C.2    47  ASN47       0.2266
     27  O         16.3350   -9.9940    0.0070 O.2    47  ASN47      -0.2867
     28  CB        18.5690   -8.6560   -2.0520 C.3    47  ASN47       0.1155
     29  CG        18.7640  -10.0950   -2.4860 C.2    47  ASN47       0.2627
     30  OD1       19.7810  -10.7150   -2.1810 O.2    47  ASN47      -0.2716
     31  ND2       17.7890  -10.6330   -3.2070 N.am   47  ASN47      -0.0877
     32  N         14.7850   -5.1800   -7.2640 N.3    60  HIS60      -0.1241
     33  CA        15.6950   -5.8880   -6.3770 C.3    60  HIS60       0.1621
     34  C         16.2900   -4.7950   -5.5050 C.2    60  HIS60       0.2264
     35  O         16.6880   -3.7630   -6.0260 O.2    60  HIS60      -0.2867
     36  CB        16.8150   -6.5640   -7.1670 C.3    60  HIS60       0.0745
     37  CG        17.9370   -7.1230   -6.3340 C.ar   60  HIS60       0.0817
     38  ND1       19.0630   -6.3860   -6.0200 N.ar   60  HIS60      -0.2268
     39  CD2       18.1560   -8.3620   -5.8310 C.ar   60  HIS60       0.1154
     40  CE1       19.9070   -7.1360   -5.3300 C.ar   60  HIS60       0.1986
     41  NE2       19.3920   -8.3480   -5.2280 N.ar   60  HIS60      -0.2212
     42  N         24.4570   -3.8580    0.8030 N.3    64  ARG64      -0.1245
     43  CA        25.8390   -4.2870    0.6960 C.3    64  ARG64       0.1563
     44  C         26.6890   -3.6570    1.7790 C.2    64  ARG64       0.2260
     45  O         27.2090   -2.5650    1.5900 O.2    64  ARG64      -0.2867
     46  CB        26.4090   -3.9240   -0.6640 C.3    64  ARG64       0.0307
     47  CG        25.6770   -4.5520   -1.8780 C.3    64  ARG64       0.0489
     48  CD        25.7560   -6.0570   -1.9360 C.3    64  ARG64       0.2205
     49  NE        25.0090   -6.4850   -3.1330 N.pl3  64  ARG64      -0.0865
     50  CZ        25.5640   -6.5580   -4.3370 C.cat  64  ARG64       0.5346
     51  NH1       26.8570   -6.2400   -4.4900 N.pl3  64  ARG64       0.1354
     52  NH2       24.8390   -6.9110   -5.3840 N.pl3  64  ARG64       0.1354
     53  N         30.2970   -2.8390    0.9240 N.3    67  GLU67      -0.1245
     54  CA        30.4510   -1.9180   -0.1840 C.3    67  GLU67       0.1567
     55  C         29.8650   -0.5670    0.1530 C.2    67  GLU67       0.2260
     56  O         30.0040    0.3520   -0.6370 O.2    67  GLU67      -0.2867
     57  CB        29.7230   -2.4880   -1.4210 C.3    67  GLU67       0.0388
     58  CG        30.1040   -3.9270   -1.7750 C.3    67  GLU67       0.1160
     59  CD        29.3010   -4.4920   -2.9590 C.2    67  GLU67       0.3649
     60  OE1       29.0630   -3.7620   -3.9380 O.co2  67  GLU67      -0.2457
     61  OE2       29.0070   -5.7060   -2.9670 O.co2  67  GLU67      -0.2457
     62  N         21.8860   -1.5060   -3.6170 N.3    71  VAL71      -0.1245
     63  CA        21.9770   -1.8090   -5.0290 C.3    71  VAL71       0.1561
     64  C         20.5610   -2.0130   -5.4870 C.2    71  VAL71       0.2260
     65  O         19.8520   -2.8160   -4.8900 O.2    71  VAL71      -0.2867
     66  CB        22.7260   -3.1180   -5.3370 C.3    71  VAL71       0.0252
     67  CG1       22.5760   -3.4810   -6.8720 C.3    71  VAL71       0.0019
     68  CG2       24.1750   -2.9760   -4.9260 C.3    71  VAL71       0.0019
     69  N         18.0060   -2.8990   -8.8390 N.3    73  ASN73      -0.1240
     70  CA        18.1360   -3.4070  -10.1810 C.3    73  ASN73       0.1653
     71  C         16.8510   -4.1770  -10.4940 C.2    73  ASN73       0.2266
     72  O         15.9210   -4.1920   -9.6760 O.2    73  ASN73      -0.2867
     73  CB        19.3640   -4.3250  -10.2110 C.3    73  ASN73       0.1155
     74  CG        19.9310   -4.5440  -11.6140 C.2    73  ASN73       0.2627
     75  OD1       19.2950   -4.2960  -12.6570 O.2    73  ASN73      -0.2716
     76  ND2       21.1780   -4.9700  -11.6310 N.am   73  ASN73      -0.0877
     77  N         15.6800   -7.8430  -12.6440 N.3    75  ILE75      -0.1245
     78  CA        16.2410   -9.0240  -13.2420 C.3    75  ILE75       0.1561
     79  C         15.1950   -9.9050  -13.9140 C.2    75  ILE75       0.2260
     80  O         14.3990  -10.5470  -13.2300 O.2    75  ILE75      -0.2867
     81  CB        16.9850   -9.9260  -12.2400 C.3    75  ILE75       0.0252
     82  CG1       18.0320   -9.1740  -11.4010 C.3    75  ILE75       0.0019
     83  CG2       17.6160  -11.1110  -12.9510 C.3    75  ILE75       0.0019
     84  CD1       17.4390   -8.2860  -10.3770 C.3    75  ILE75       0.0001
     85  N         21.2710   -9.7310  -14.6540 N.3    81  ARG81      -0.1245
     86  CA        20.9050   -8.4380  -14.1280 C.3    81  ARG81       0.1563
     87  C         21.0580   -7.3130  -15.1520 C.2    81  ARG81       0.2260
     88  O         21.8030   -7.4440  -16.1220 O.2    81  ARG81      -0.2867
     89  CB        21.8450   -8.0930  -12.9690 C.3    81  ARG81       0.0307
     90  CG        23.2790   -7.9580  -13.3580 C.3    81  ARG81       0.0489
     91  CD        24.0210   -7.4740  -12.1490 C.3    81  ARG81       0.2205
     92  NE        25.4670   -7.2900  -12.2890 N.pl3  81  ARG81      -0.0865
     93  CZ        26.0310   -6.1680  -12.7080 C.cat  81  ARG81       0.5346
     94  NH1       25.2800   -5.1840  -13.1880 N.pl3  81  ARG81       0.1354
     95  NH2       27.3500   -6.0680  -12.7430 N.pl3  81  ARG81       0.1354
     96  N         23.2880   -1.6810  -12.5070 N.3    84  GLU84      -0.1245
     97  CA        22.9320   -1.3860  -11.1250 C.3    84  GLU84       0.1567
     98  C         22.7770    0.0830  -10.8360 C.2    84  GLU84       0.2260
     99  O         23.4400    0.9040  -11.4580 O.2    84  GLU84      -0.2867
    100  CB        24.0210   -1.9360  -10.1570 C.3    84  GLU84       0.0388
    101  CG        24.1420   -3.4300  -10.1480 C.3    84  GLU84       0.1160
    102  CD        25.2150   -3.9770   -9.2130 C.2    84  GLU84       0.3649
    103  OE1       25.0800   -5.1700   -8.9120 O.co2  84  GLU84      -0.2457
    104  OE2       26.1540   -3.2590   -8.7620 O.co2  84  GLU84      -0.2457
    105  N         23.0460    2.5210   -7.6440 N.3    86  ARG86      -0.1245
    106  CA        23.5070    2.4580   -6.2610 C.3    86  ARG86       0.1563
    107  C         23.4700    3.7940   -5.5220 C.2    86  ARG86       0.2260
    108  O         23.6160    4.8540   -6.1270 O.2    86  ARG86      -0.2867
    109  CB        24.9100    1.8520   -6.2020 C.3    86  ARG86       0.0307
    110  CG        25.0120    0.4840   -6.8560 C.3    86  ARG86       0.0489
    111  CD        26.4520    0.1190   -7.1740 C.3    86  ARG86       0.2205
    112  NE        27.2230   -0.1860   -5.9740 N.pl3  86  ARG86      -0.0865
    113  CZ        27.5810   -1.4120   -5.6070 C.cat  86  ARG86       0.5346
    114  NH1       27.2470   -2.4570   -6.3500 N.pl3  86  ARG86       0.1354
    115  NH2       28.2820   -1.5910   -4.4970 N.pl3  86  ARG86       0.1354
    116  N         23.1590  -14.2900    0.2570 N.3   138  ASN138     -0.1240
    117  CA        24.2060  -15.1130   -0.3090 C.3   138  ASN138      0.1653
    118  C         24.5790  -16.2250    0.6600 C.2   138  ASN138      0.2266
    119  O         24.5520  -16.0440    1.8770 O.2   138  ASN138     -0.2867
    120  CB        25.4190  -14.2960   -0.7910 C.3   138  ASN138      0.1155
    121  CG        25.1380  -13.5350   -2.0630 C.2   138  ASN138      0.2627
    122  OD1       24.0430  -13.6190   -2.6240 O.2   138  ASN138     -0.2716
    123  ND2       26.1510  -12.8690   -2.5840 N.am  138  ASN138     -0.0877
@<TRIPOS>BOND
     1    88    87    2
     2    87    86    1
     3    85    86    1
     4    86    89    1
     5    79    78    1
     6    79    80    2
     7    90    89    1
     8    90    91    1
     9    78    77    1
    10    78    81    1
    11    94    93    1
    12    83    81    1
    13    95    93    1
    14    93    92    2
    15    75    74    2
    16    96    97    1
    17    92    91    1
    18    81    82    1
    19    76    74   am
    20    74    73    1
    21    99    98    2
    22    82    84    1
    23    97    98    1
    24    97   100    1
    25    71    70    1
    26    71    72    2
    27    73    70    1
    28    70    69    1
    29   100   101    1
    30   101   102    1
    31   102   103   ar
    32   102   104   ar
    33   105   106    1
    34    32    33    1
    35   111   110    1
    36   111   112    1
    37    36    33    1
    38    36    37    1
    39    67    66    1
    40   110   109    1
    41    33    34    1
    42   114   113    1
    43    37    38   ar
    44    37    39   ar
    45   106   109    1
    46   106   107    1
    47   108   107    2
    48    35    34    2
    49    38    40   ar
    50   112   113    2
    51    15    13    1
    52    39    41   ar
    53   113   115    1
    54    64    63    1
    55    64    65    2
    56    52    50    1
    57    66    63    1
    58    66    68    1
    59    40    41   ar
    60    63    62    1
    61    13    12    1
    62    51    50    1
    63    50    49    2
    64     4     3    2
    65    60    59   ar
    66    23    21   am
    67     3     2    1
    68    12    14    1
    69    12     9    1
    70     2     5    1
    71     2     1    1
    72    31    29   am
    73     7     5    1
    74    49    48    1
    75     5     6    1
    76    61    59   ar
    77    59    58    1
    78   122   121    2
    79   123   121   am
    80    29    30    2
    81    29    28    1
    82    21    22    2
    83    21    20    1
    84   121   120    1
    85    28    25    1
    86     8     9    1
    87     9    10    1
    88    48    47    1
    89    47    46    1
    90    58    57    1
    91    20    17    1
    92    57    54    1
    93    10    11    2
    94   120   117    1
    95    46    43    1
    96    56    55    2
    97    25    26    1
    98    25    24    1
    99    26    27    2
   100   117   116    1
   101   117   118    1
   102    54    55    1
   103    54    53    1
   104    17    18    1
   105    17    16    1
   106    18    19    2
   107   118   119    2
   108    43    42    1
   109    43    44    1
   110    45    44    2
