@<TRIPOS>MOLECULE
tmp/2r0mA01.pdb
 112 104 0 0 0
SMALL
GASTEIGER

@<TRIPOS>ATOM
      1  N         75.7180   23.5840   60.9090 N.3    92  ARG92      -0.1231
      2  CA        76.5540   22.5950   60.2550 C.3    92  ARG92       0.1694
      3  C         76.3050   22.5710   58.7430 C.2    92  ARG92       0.2592
      4  O         77.2200   22.3390   57.9600 O.2    92  ARG92      -0.2718
      5  CB        76.3040   21.2150   60.8750 C.3    92  ARG92       0.0321
      6  CG        77.3170   20.1480   60.4760 C.3    92  ARG92       0.0489
      7  CD        76.9600   19.5380   59.1420 C.3    92  ARG92       0.2205
      8  NE        75.6410   18.9260   59.2260 N.pl3  92  ARG92      -0.0865
      9  CZ        74.7940   18.8140   58.2090 C.cat  92  ARG92       0.5346
     10  NH1       73.6150   18.2390   58.3990 N.pl3  92  ARG92       0.1354
     11  NH2       75.1160   19.2820   57.0130 N.pl3  92  ARG92       0.1354
     12  N         75.0720   22.8200   58.3290 N.am   93  SER93      -0.1952
     13  CA        74.7460   22.8200   56.9060 C.3    93  SER93       0.1924
     14  C         75.4290   23.9630   56.1610 C.2    93  SER93       0.2314
     15  O         75.8170   23.8040   55.0010 O.2    93  SER93      -0.2863
     16  CB        73.2350   22.9020   56.7090 C.3    93  SER93       0.2116
     17  OG        72.6110   21.7600   57.2710 O.3    93  SER93      -0.2180
     18  N         78.8960   22.8910   55.7560 N.3    96  SER96      -0.1202
     19  CA        78.9340   21.7820   54.7990 C.3    96  SER96       0.2020
     20  C         78.9460   22.2500   53.3600 C.2    96  SER96       0.2618
     21  O         79.6850   21.7250   52.5400 O.2    96  SER96      -0.2717
     22  CB        77.7310   20.8530   54.9940 C.3    96  SER96       0.2103
     23  OG        77.8930   20.0330   56.1310 O.3    96  SER96      -0.2182
     24  N         78.1010   23.2220   53.0480 N.am   97  VAL97      -0.1979
     25  CA        78.0400   23.7500   51.6950 C.3    97  VAL97       0.1595
     26  C         79.4150   24.3130   51.3520 C.2    97  VAL97       0.2287
     27  O         80.0520   23.8970   50.3830 O.2    97  VAL97      -0.2864
     28  CB        76.9950   24.8860   51.5880 C.3    97  VAL97       0.0276
     29  CG1       77.0360   25.5070   50.1970 C.3    97  VAL97       0.0022
     30  CG2       75.6030   24.3440   51.8960 C.3    97  VAL97       0.0022
     31  N         80.6330   21.4070   49.1700 N.3   101  LEU101     -0.1245
     32  CA        79.9270   21.6720   47.9350 C.3   101  LEU101      0.1561
     33  C         80.4130   22.8640   47.1310 C.2   101  LEU101      0.2260
     34  O         80.0920   22.9850   45.9510 O.2   101  LEU101     -0.2867
     35  CB        78.4340   21.7940   48.2210 C.3   101  LEU101      0.0270
     36  CG        77.8790   20.5570   48.9250 C.3   101  LEU101      0.0019
     37  CD1       76.5370   20.9000   49.4980 C.3   101  LEU101      0.0001
     38  CD2       77.7860   19.3770   47.9750 C.3   101  LEU101      0.0001
     39  N         75.8170   25.8810   46.6770 N.3   131  PHE131     -0.1241
     40  CA        75.7410   24.8140   45.6800 C.3   131  PHE131      0.1605
     41  C         74.3380   24.7690   45.0590 C.2   131  PHE131      0.2264
     42  O         73.3760   24.3390   45.6970 O.2   131  PHE131     -0.2867
     43  CB        76.1020   23.4990   46.3930 C.3   131  PHE131      0.0534
     44  CG        76.1000   22.2890   45.5170 C.ar  131  PHE131     -0.0203
     45  CD1       74.9430   21.5450   45.3480 C.ar  131  PHE131     -0.0042
     46  CD2       77.2660   21.8720   44.8850 C.ar  131  PHE131     -0.0042
     47  CE1       74.9430   20.4050   44.5690 C.ar  131  PHE131     -0.0003
     48  CE2       77.2840   20.7300   44.0980 C.ar  131  PHE131     -0.0003
     49  CZ        76.1230   19.9930   43.9380 C.ar  131  PHE131     -0.0000
     50  N         72.0280   23.0940   42.5690 N.3   133  LEU133     -0.1231
     51  CA        71.7370   21.9730   41.6940 C.3   133  LEU133      0.1693
     52  C         70.2290   21.7510   41.5860 C.2   133  LEU133      0.2592
     53  O         69.6760   21.7110   40.4880 O.2   133  LEU133     -0.2718
     54  CB        72.4020   20.7140   42.2360 C.3   133  LEU133      0.0284
     55  CG        72.0890   19.4350   41.4670 C.3   133  LEU133      0.0019
     56  CD1       72.7010   19.5170   40.0780 C.3   133  LEU133      0.0001
     57  CD2       72.6260   18.2450   42.2330 C.3   133  LEU133      0.0001
     58  N         69.5740   21.6100   42.7350 N.am  134  THR134     -0.1953
     59  CA        68.1330   21.3860   42.7920 C.3   134  THR134      0.1897
     60  C         67.3230   22.4500   42.0580 C.2   134  THR134      0.2313
     61  O         67.6690   23.6350   42.0640 O.2   134  THR134     -0.2863
     62  CB        67.6230   21.3630   44.2470 C.3   134  THR134      0.1794
     63  OG1       68.3980   20.4340   45.0130 O.3   134  THR134     -0.2208
     64  CG2       66.1490   20.9590   44.2950 C.3   134  THR134      0.0378
     65  N         70.8340   26.4040   49.8740 N.3   168  THR168     -0.1218
     66  CA        71.3980   26.9080   51.1270 C.3   168  THR168      0.1862
     67  C         72.4030   28.0420   50.9150 C.2   168  THR168      0.2287
     68  O         73.2600   27.9700   50.0410 O.2   168  THR168     -0.2866
     69  CB        72.0740   25.7500   51.9390 C.3   168  THR168      0.1770
     70  OG1       71.0660   24.8590   52.4190 O.3   168  THR168     -0.2211
     71  CG2       72.8670   26.2830   53.1360 C.3   168  THR168      0.0375
     72  N         78.6710   15.5590   46.0680 N.3   244  LEU244     -0.1245
     73  CA        77.5420   15.1390   46.8870 C.3   244  LEU244      0.1561
     74  C         77.9600   14.1050   47.9180 C.2   244  LEU244      0.2260
     75  O         77.6060   14.2090   49.0950 O.2   244  LEU244     -0.2867
     76  CB        76.4130   14.5660   46.0250 C.3   244  LEU244      0.0270
     77  CG        75.4550   15.5450   45.3240 C.3   244  LEU244      0.0019
     78  CD1       74.3500   14.7360   44.6340 C.3   244  LEU244      0.0001
     79  CD2       74.8480   16.5320   46.3330 C.3   244  LEU244      0.0001
     80  N         79.7290   15.4410   50.8200 N.3   247  ALA247     -0.1245
     81  CA        78.8020   16.1560   51.6890 C.3   247  ALA247      0.1562
     82  C         78.0900   15.1550   52.6000 C.2   247  ALA247      0.2260
     83  O         77.9720   15.3630   53.8070 O.2   247  ALA247     -0.2867
     84  CB        77.7920   16.9130   50.8530 C.3   247  ALA247      0.0290
     85  N         77.4960   14.6850   56.7730 N.3   251  ILE251     -0.1245
     86  CA        76.1620   14.5470   57.3480 C.3   251  ILE251      0.1561
     87  C         76.0270   13.3000   58.2210 C.2   251  ILE251      0.2260
     88  O         75.3550   13.3360   59.2550 O.2   251  ILE251     -0.2867
     89  CB        75.0920   14.5050   56.2440 C.3   251  ILE251      0.0252
     90  CG1       75.1730   15.7860   55.4090 C.3   251  ILE251      0.0019
     91  CG2       73.7010   14.3340   56.8650 C.3   251  ILE251      0.0019
     92  CD1       74.3140   15.7810   54.1640 C.3   251  ILE251      0.0001
     93  N         67.2270   16.1450   52.4170 N.3   367  TYR367     -0.1227
     94  CA        68.1950   16.6290   51.4490 C.3   367  TYR367      0.1736
     95  C         69.4480   15.7770   51.2900 C.2   367  TYR367      0.2595
     96  O         69.8090   14.9840   52.1690 O.2   367  TYR367     -0.2718
     97  CB        68.5450   18.1120   51.7140 C.3   367  TYR367      0.0548
     98  CG        69.4430   18.4410   52.8860 C.ar  367  TYR367     -0.0200
     99  CD1       69.4170   19.7180   53.4560 C.ar  367  TYR367     -0.0009
    100  CD2       70.3490   17.5120   53.4010 C.ar  367  TYR367     -0.0009
    101  CE1       70.2660   20.0610   54.5080 C.ar  367  TYR367      0.0417
    102  CE2       71.2100   17.8460   54.4510 C.ar  367  TYR367      0.0417
    103  CZ        71.1630   19.1170   55.0000 C.ar  367  TYR367      0.1957
    104  OH        72.0140   19.4340   56.0350 O.3   367  TYR367     -0.2866
    105  N         70.0830   15.9410   50.1330 N.am  368  ASP368     -0.1974
    106  CA        71.2870   15.2120   49.7820 C.3   368  ASP368      0.1709
    107  C         70.9490   13.7280   49.6170 C.2   368  ASP368      0.2293
    108  O         71.7440   12.8500   49.9710 O.2   368  ASP368     -0.2864
    109  CB        72.3360   15.4040   50.8680 C.3   368  ASP368      0.1436
    110  CG        73.7320   15.5360   50.3040 C.2   368  ASP368      0.3671
    111  OD1       74.1760   14.6520   49.5350 O.co2 368  ASP368     -0.2456
    112  OD2       74.3970   16.5320   50.6360 O.co2 368  ASP368     -0.2456
@<TRIPOS>BOND
     1    56    55    1
     2    53    52    2
     3    55    57    1
     4    55    54    1
     5    52    51    1
     6    52    58   am
     7    51    54    1
     8    51    50    1
     9    60    61    2
    10    60    59    1
    11    58    59    1
    12    59    62    1
    13    49    48   ar
    14    49    47   ar
    15    48    46   ar
    16    62    64    1
    17    62    63    1
    18    47    45   ar
    19    78    77    1
    20    46    44   ar
    21    41    40    1
    22    41    42    2
    23    77    76    1
    24    77    79    1
    25    45    44   ar
    26    44    43    1
    27    40    43    1
    28    40    39    1
    29    34    33    2
    30    76    73    1
    31    72    73    1
    32    73    74    1
    33    33    32    1
    34    74    75    2
    35    32    35    1
    36    32    31    1
    37    38    36    1
    38    35    36    1
    39    36    37    1
    40   111   110   ar
    41   107   106    1
    42   107   108    2
    43   106   105    1
    44   106   109    1
    45    65    66    1
    46    68    67    2
    47   105    95   am
    48    29    28    1
    49   110   112   ar
    50   110   109    1
    51    27    26    2
    52    80    81    1
    53    84    81    1
    54    67    66    1
    55    66    69    1
    56    95    94    1
    57    95    96    2
    58    26    25    1
    59    94    97    1
    60    94    93    1
    61    28    25    1
    62    28    30    1
    63    81    82    1
    64    25    24    1
    65    97    98    1
    66    69    70    1
    67    69    71    1
    68    21    20    2
    69    82    83    2
    70    98   100   ar
    71    98    99   ar
    72    24    20   am
    73    20    19    1
    74   100   102   ar
    75    99   101   ar
    76    92    90    1
    77   102   103   ar
    78   101   103   ar
    79    19    22    1
    80    19    18    1
    81    22    23    1
    82   103   104    1
    83    15    14    2
    84    90    89    1
    85    14    13    1
    86    89    91    1
    87    89    86    1
    88    16    13    1
    89    16    17    1
    90    85    86    1
    91    13    12    1
    92    11     9    1
    93    86    87    1
    94     4     3    2
    95     9    10    1
    96     9     8    2
    97    87    88    2
    98    12     3   am
    99     3     2    1
   100     7     8    1
   101     7     6    1
   102     2     5    1
   103     2     1    1
   104     6     5    1
