@<TRIPOS>MOLECULE
tmp/2r0tA00.pdb
 162 152 0 0 0
SMALL
GASTEIGER

@<TRIPOS>ATOM
      1  N          3.4830    6.1200   17.7360 N.3    53  SER53      -0.1202
      2  CA         2.4690    6.6010   18.6470 C.3    53  SER53       0.2020
      3  C          2.6970    8.0750   18.7790 C.2    53  SER53       0.2619
      4  O          3.7140    8.5570   18.3230 O.2    53  SER53      -0.2717
      5  CB         2.6320    5.9470   20.0240 C.3    53  SER53       0.2103
      6  OG         3.8710    6.2870   20.6860 O.3    53  SER53      -0.2182
      7  N          1.7580    8.7980   19.3900 N.am   54  GLY54      -0.1942
      8  CA         2.0300   10.2150   19.5930 C.3    54  GLY54       0.2014
      9  C          3.1980   10.4750   20.5670 C.2    54  GLY54       0.2639
     10  O          3.8610   11.5150   20.5240 O.2    54  GLY54      -0.2714
     11  N          3.5050    9.5260   21.4360 N.am   55  SER55      -0.1949
     12  CA         4.5790    9.7090   22.4190 C.3    55  SER55       0.1924
     13  C          5.9090    9.7310   21.6540 C.2    55  SER55       0.2314
     14  O          6.7720   10.6120   21.8150 O.2    55  SER55      -0.2863
     15  CB         4.4820    8.5400   23.4260 C.3    55  SER55       0.2116
     16  OG         3.4280    8.8140   24.3360 O.3    55  SER55      -0.2180
     17  N          6.4420   12.8520   19.8690 N.3    58  ASN58      -0.1240
     18  CA         7.0580   13.8610   20.7030 C.3    58  ASN58       0.1653
     19  C          8.5610   13.6050   20.8710 C.2    58  ASN58       0.2266
     20  O          9.3770   14.5310   20.9380 O.2    58  ASN58      -0.2867
     21  CB         6.3850   13.8760   22.0750 C.3    58  ASN58       0.1155
     22  CG         5.0120   14.5390   22.0260 C.2    58  ASN58       0.2627
     23  OD1        4.6420   15.0780   21.0000 O.2    58  ASN58      -0.2716
     24  ND2        4.2670   14.5140   23.1280 N.am   58  ASN58      -0.0877
     25  N         -0.6690   18.6630   30.7980 N.3    85  SER85      -0.1202
     26  CA        -0.5430   17.9130   29.5420 C.3    85  SER85       0.2020
     27  C         -0.3070   16.4690   29.9400 C.2    85  SER85       0.2618
     28  O         -0.1540   16.1880   31.1270 O.2    85  SER85      -0.2717
     29  CB         0.6900   18.4080   28.7650 C.3    85  SER85       0.2103
     30  OG         0.6430   17.9140   27.4410 O.3    85  SER85      -0.2182
     31  N         -0.2190   15.5980   28.9310 N.am   86  TRP86      -0.1975
     32  CA         0.1780   14.2040   29.1010 C.3    86  TRP86       0.1640
     33  C          1.6820   14.0900   29.4810 C.2    86  TRP86       0.2290
     34  O          2.5770   14.9340   29.1520 O.2    86  TRP86      -0.2864
     35  CB        -0.0630   13.4280   27.8010 C.3    86  TRP86       0.0576
     36  CG         0.0650   11.9560   28.0110 C.ar   86  TRP86       0.0006
     37  CD1        0.9740   11.0960   27.4570 C.ar   86  TRP86       0.0946
     38  CD2       -0.7320   11.1870   28.8950 C.ar   86  TRP86       0.0152
     39  NE1        0.7650    9.8080   27.9360 N.ar   86  TRP86      -0.2442
     40  CE2       -0.2840    9.8580   28.8180 C.ar   86  TRP86       0.0810
     41  CE3       -1.8110   11.4990   29.7250 C.ar   86  TRP86       0.0012
     42  CZ2       -0.8340    8.8630   29.5910 C.ar   86  TRP86       0.0191
     43  CZ3       -2.4150   10.4990   30.4190 C.ar   86  TRP86       0.0001
     44  CH2       -1.9130    9.1920   30.3710 C.ar   86  TRP86       0.0015
     45  N          4.0580   12.2580   28.4150 N.3    88  THR88      -0.1203
     46  CA         5.0790   12.0840   27.4040 C.3    88  THR88       0.1994
     47  C          5.2620   13.3430   26.6310 C.2    88  THR88       0.2618
     48  O          5.9570   13.3370   25.6580 O.2    88  THR88      -0.2717
     49  CB         4.8660   10.9190   26.4350 C.3    88  THR88       0.1784
     50  OG1        3.6360   11.1160   25.7300 O.3    88  THR88      -0.2211
     51  CG2        4.8790    9.5730   27.1340 C.3    88  THR88       0.0376
     52  N          4.6260   14.4290   27.0290 N.am   89  THR89      -0.1952
     53  CA         4.9540   15.7080   26.3970 C.3    89  THR89       0.1897
     54  C          6.2650   16.1240   27.1010 C.2    89  THR89       0.2313
     55  O          7.1260   16.7710   26.5370 O.2    89  THR89      -0.2863
     56  CB         3.9570   16.7600   26.8920 C.3    89  THR89       0.1794
     57  OG1        2.6730   16.4310   26.3840 O.3    89  THR89      -0.2208
     58  CG2        4.3580   18.1340   26.4470 C.3    89  THR89       0.0378
     59  N          0.8360   23.0340   23.9000 N.3   131  VAL131     -0.1245
     60  CA         0.0020   21.8540   23.7790 C.3   131  VAL131      0.1561
     61  C         -1.3870   22.4130   23.4880 C.2   131  VAL131      0.2260
     62  O         -1.7800   23.3110   24.2110 O.2   131  VAL131     -0.2867
     63  CB         0.0030   21.1150   25.1410 C.3   131  VAL131      0.0252
     64  CG1       -0.9890   19.9560   25.1570 C.3   131  VAL131      0.0019
     65  CG2        1.4050   20.5970   25.4910 C.3   131  VAL131      0.0019
     66  N          2.4750   20.1670   20.7030 N.3   157  ASP157     -0.1239
     67  CA         1.9480   18.8140   20.9380 C.3   157  ASP157      0.1674
     68  C          0.4180   18.9780   20.6200 C.2   157  ASP157      0.2266
     69  O         -0.3480   19.6830   21.3140 O.2   157  ASP157     -0.2867
     70  CB         2.1670   18.3140   22.3540 C.3   157  ASP157      0.1410
     71  CG         1.5110   16.9640   22.5970 C.2   157  ASP157      0.3668
     72  OD1        0.6700   16.4740   21.8150 O.co2 157  ASP157     -0.2456
     73  OD2        1.8150   16.4010   23.6530 O.co2 157  ASP157     -0.2456
     74  N         -1.6020   16.3680   20.1500 N.3   159  CYS159     -0.1221
     75  CA        -2.1640   15.0180   20.2260 C.3   159  CYS159      0.1808
     76  C         -3.6340   14.9050   20.5850 C.2   159  CYS159      0.2601
     77  O         -4.2600   13.8510   20.4110 O.2   159  CYS159     -0.2717
     78  CB        -1.2930   14.1650   21.1360 C.3   159  CYS159      0.0970
     79  SG         0.2770   13.8140   20.2790 S.3   159  CYS159     -0.0800
     80  N         -4.1610   15.9830   21.1500 N.am  160  GLU160     -0.1979
     81  CA        -5.5940   16.0760   21.5570 C.3   160  GLU160      0.1602
     82  C         -6.4660   16.9870   20.6950 C.2   160  GLU160      0.2287
     83  O         -7.6630   17.1440   20.9660 O.2   160  GLU160     -0.2864
     84  CB        -5.7070   16.5680   23.0230 C.3   160  GLU160      0.0415
     85  CG        -4.9190   15.7170   23.9900 C.3   160  GLU160      0.1163
     86  CD        -5.0640   16.1220   25.4640 C.2   160  GLU160      0.3649
     87  OE1       -5.6500   17.1900   25.7460 O.co2 160  GLU160     -0.2457
     88  OE2       -4.5840   15.3570   26.3310 O.co2 160  GLU160     -0.2457
     89  N         -1.6610   12.2170   17.3120 N.3   181  SER181     -0.1217
     90  CA        -1.7710   10.8530   17.8340 C.3   181  SER181      0.1889
     91  C         -2.9490   10.1860   17.2180 C.2   181  SER181      0.2288
     92  O         -4.0000   10.8180   17.1680 O.2   181  SER181     -0.2866
     93  CB        -2.0360   10.9190   19.3280 C.3   181  SER181      0.2089
     94  OG        -2.2900    9.6380   19.8490 O.3   181  SER181     -0.2183
     95  N         -4.0120    7.1110   18.4480 N.3   183  PHE183     -0.1241
     96  CA        -4.3050    6.1420   19.4780 C.3   183  PHE183      0.1605
     97  C         -5.8300    5.9920   19.5720 C.2   183  PHE183      0.2264
     98  O         -6.5950    6.9290   19.2890 O.2   183  PHE183     -0.2867
     99  CB        -3.7530    6.6090   20.8210 C.3   183  PHE183      0.0534
    100  CG        -4.0480    5.6670   21.9650 C.ar  183  PHE183     -0.0203
    101  CD1       -3.4330    4.4190   22.0290 C.ar  183  PHE183     -0.0042
    102  CD2       -4.9400    6.0200   22.9710 C.ar  183  PHE183     -0.0042
    103  CE1       -3.7000    3.5470   23.0730 C.ar  183  PHE183     -0.0003
    104  CE2       -5.2110    5.1590   24.0200 C.ar  183  PHE183     -0.0003
    105  CZ        -4.5730    3.9280   24.0760 C.ar  183  PHE183     -0.0000
    106  N         -8.2850    6.1460   21.5760 N.3   185  SER185     -0.1202
    107  CA        -9.1620    7.1750   22.1730 C.3   185  SER185      0.2020
    108  C         -9.1840    8.5680   21.5730 C.2   185  SER185      0.2618
    109  O        -10.0250    9.4130   21.9680 O.2   185  SER185     -0.2717
    110  CB        -8.8060    7.3020   23.6440 C.3   185  SER185      0.2103
    111  OG        -7.4730    7.7740   23.7920 O.3   185  SER185     -0.2182
    112  N         -8.3160    8.8350   20.5800 N.am  186  LYS186     -0.1979
    113  CA        -8.1710   10.1180   19.8750 C.3   186  LYS186      0.1596
    114  C         -9.2070   10.4830   18.7310 C.2   186  LYS186      0.2287
    115  O        -10.3030    9.8970   18.6820 O.2   186  LYS186     -0.2864
    116  CB        -6.6640   10.4940   19.7620 C.3   186  LYS186      0.0298
    117  CG        -6.0690   10.2750   21.1420 C.3   186  LYS186      0.0038
    118  CD        -4.8380   11.0630   21.5370 C.3   186  LYS186      0.0206
    119  CE        -4.1320   10.4580   22.7520 C.3   186  LYS186      0.1093
    120  NZ        -3.7740   11.5290   23.7170 N.3   186  LYS186     -0.1314
    121  N         -2.6000    2.1300   17.3130 N.3   192  GLU192     -0.1231
    122  CA        -1.6320    3.0530   17.9340 C.3   192  GLU192      0.1699
    123  C         -1.0880    3.8120   16.7170 C.2   192  GLU192      0.2592
    124  O         -1.1590    3.3100   15.6010 O.2   192  GLU192     -0.2718
    125  CB        -0.4580    2.3750   18.6580 C.3   192  GLU192      0.0402
    126  CG        -0.7930    1.6580   19.9520 C.3   192  GLU192      0.1161
    127  CD        -0.3340    2.3170   21.2310 C.2   192  GLU192      0.3649
    128  OE1       -0.1430    3.5570   21.3240 O.co2 192  GLU192     -0.2457
    129  OE2       -0.2610    1.5190   22.1900 O.co2 192  GLU192     -0.2457
    130  N         -0.5360    5.0010   16.9070 N.am  193  GLY193     -0.1957
    131  CA         0.0700    5.7210   15.7900 C.3   193  GLY193      0.1869
    132  C          0.2230    7.1720   16.1750 C.2   193  GLY193      0.2309
    133  O         -0.5040    7.6930   17.0180 O.2   193  GLY193     -0.2863
    134  N        -12.1950   17.6530   21.8290 N.3   300  PHE300     -0.1241
    135  CA       -11.8550   16.2950   22.2100 C.3   300  PHE300      0.1605
    136  C        -12.7810   15.7610   23.3200 C.2   300  PHE300      0.2264
    137  O        -13.2130   14.6140   23.3090 O.2   300  PHE300     -0.2867
    138  CB       -10.4030   16.3510   22.6240 C.3   300  PHE300      0.0534
    139  CG        -9.8670   15.0830   23.1660 C.ar  300  PHE300     -0.0203
    140  CD1       -9.4980   14.0460   22.3110 C.ar  300  PHE300     -0.0042
    141  CD2       -9.6030   14.9740   24.5220 C.ar  300  PHE300     -0.0042
    142  CE1       -8.9420   12.8800   22.8110 C.ar  300  PHE300     -0.0003
    143  CE2       -9.0610   13.7940   25.0520 C.ar  300  PHE300     -0.0003
    144  CZ        -8.7010   12.7530   24.1760 C.ar  300  PHE300     -0.0000
    145  N        -12.9180   11.5330   34.2580 N.3   329  ARG329     -0.1245
    146  CA       -11.5470   11.3940   34.7220 C.3   329  ARG329      0.1563
    147  C        -11.0680   12.8150   35.0030 C.2   329  ARG329      0.2260
    148  O        -11.8020   13.7950   34.8100 O.2   329  ARG329     -0.2867
    149  CB       -10.7200   10.7780   33.6140 C.3   329  ARG329      0.0307
    150  CG       -10.9670   11.5790   32.3350 C.3   329  ARG329      0.0489
    151  CD       -10.1840   11.0670   31.1510 C.3   329  ARG329      0.2205
    152  NE        -8.8250   11.6160   31.2360 N.pl3 329  ARG329     -0.0865
    153  CZ        -7.7930   11.3060   30.4490 C.cat 329  ARG329      0.5346
    154  NH1       -7.9150   10.3800   29.5100 N.pl3 329  ARG329      0.1354
    155  NH2       -6.6150   11.8970   30.6210 N.pl3 329  ARG329      0.1354
    156  N         -7.0990   15.7910   31.5920 N.3   332  VAL332     -0.1245
    157  CA        -5.8020   15.3510   31.0660 C.3   332  VAL332      0.1561
    158  C         -5.1910   14.6110   32.2410 C.2   332  VAL332      0.2260
    159  O         -5.7550   13.6290   32.6620 O.2   332  VAL332     -0.2867
    160  CB        -4.8920   16.5150   30.6020 C.3   332  VAL332      0.0252
    161  CG1       -3.7280   15.8880   29.9260 C.3   332  VAL332      0.0019
    162  CG2       -5.6770   17.3400   29.6140 C.3   332  VAL332      0.0019
@<TRIPOS>BOND
     1   124   123    2
     2   131   132    1
     3   131   130    1
     4   132   133    2
     5   123   130   am
     6   123   122    1
     7    92    91    2
     8    91    90    1
     9    89    90    1
    10   121   122    1
    11     1     2    1
    12    90    93    1
    13   122   125    1
    14     4     3    2
    15    95    96    1
    16     2     3    1
    17     2     5    1
    18   125   126    1
    19   115   114    2
    20   114   113    1
    21     3     7   am
    22    98    97    2
    23    93    94    1
    24     7     8    1
    25    96    97    1
    26    96    99    1
    27     8     9    1
    28   116   113    1
    29   116   117    1
    30    17    18    1
    31   113   112    1
    32   126   127    1
    33     5     6    1
    34    74    75    1
    35    75    76    1
    36    75    78    1
    37    79    78    1
    38    77    76    2
    39    10     9    2
    40     9    11   am
    41   112   108   am
    42    76    80   am
    43    68    67    1
    44    68    69    2
    45    82    83    2
    46    82    81    1
    47    66    67    1
    48    18    19    1
    49    18    21    1
    50    99   100    1
    51    19    20    2
    52    67    70    1
    53    23    22    2
    54   117   118    1
    55    80    81    1
    56   127   128   ar
    57   127   129   ar
    58    11    12    1
    59   118   119    1
    60    81    84    1
    61   108   109    2
    62   108   107    1
    63   106   107    1
    64    13    14    2
    65    13    12    1
    66    72    71   ar
    67   134   135    1
    68   100   101   ar
    69   100   102   ar
    70    22    21    1
    71    22    24   am
    72   101   103   ar
    73   107   110    1
    74   135   138    1
    75   135   136    1
    76   140   142   ar
    77   140   139   ar
    78    70    71    1
    79    12    15    1
    80    71    73   ar
    81   138   139    1
    82   119   120    1
    83   142   144   ar
    84   102   104   ar
    85    84    85    1
    86   103   105   ar
    87   139   141   ar
    88   137   136    2
    89    15    16    1
    90    61    60    1
    91    61    62    2
    92   110   111    1
    93    60    59    1
    94    60    63    1
    95    85    86    1
    96   104   105   ar
    97   144   143   ar
    98   141   143   ar
    99    63    64    1
   100    63    65    1
   101    86    87   ar
   102    86    88   ar
   103    48    47    2
   104    50    49    1
   105    57    56    1
   106    53    56    1
   107    53    52    1
   108    53    54    1
   109    49    51    1
   110    49    46    1
   111    58    56    1
   112    55    54    2
   113    47    52   am
   114    47    46    1
   115    46    45    1
   116    30    29    1
   117    37    39   ar
   118    37    36   ar
   119    35    36    1
   120    35    32    1
   121    39    40   ar
   122    36    38   ar
   123    29    26    1
   124    40    38   ar
   125    40    42   ar
   126    38    41   ar
   127    31    32    1
   128    31    27   am
   129    32    33    1
   130    34    33    2
   131   154   153    1
   132    26    27    1
   133    26    25    1
   134    42    44   ar
   135   162   160    1
   136    41    43   ar
   137   161   160    1
   138    27    28    2
   139    44    43   ar
   140   153   155    1
   141   153   152    2
   142   160   157    1
   143   157   156    1
   144   157   158    1
   145   151   152    1
   146   151   150    1
   147   158   159    2
   148   150   149    1
   149   149   146    1
   150   145   146    1
   151   146   147    1
   152   148   147    2
