@<TRIPOS>MOLECULE
tmp/2r0uA00.pdb
 155 145 0 0 0
SMALL
GASTEIGER

@<TRIPOS>ATOM
      1  N         18.3700   -6.4810   -0.1770 N.3    12  GLN12      -0.1245
      2  CA        19.2840   -6.9320    0.8670 C.3    12  GLN12       0.1566
      3  C         18.6180   -7.2050    2.2010 C.2    12  GLN12       0.2260
      4  O         17.6580   -6.5250    2.5900 O.2    12  GLN12      -0.2867
      5  CB        20.4470   -5.9520    1.0130 C.3    12  GLN12       0.0367
      6  CG        20.4970   -5.1930    2.3130 C.3    12  GLN12       0.0905
      7  CD        21.9110   -4.8140    2.6900 C.2    12  GLN12       0.2608
      8  OE1       22.6520   -5.6230    3.2400 O.2    12  GLN12      -0.2717
      9  NE2       22.3060   -3.5920    2.3570 N.am   12  GLN12      -0.0878
     10  N         18.3880   -6.8960    5.9440 N.3    14  LEU14      -0.1231
     11  CA        18.8600   -5.9920    6.9740 C.3    14  LEU14       0.1693
     12  C         18.9660   -6.7200    8.3070 C.2    14  LEU14       0.2592
     13  O         19.9120   -6.5150    9.0670 O.2    14  LEU14      -0.2718
     14  CB        17.9220   -4.7850    7.0930 C.3    14  LEU14       0.0284
     15  CG        18.0020   -3.9180    5.8320 C.3    14  LEU14       0.0019
     16  CD1       17.0730   -2.7120    5.9040 C.3    14  LEU14       0.0001
     17  CD2       19.4620   -3.5130    5.6110 C.3    14  LEU14       0.0001
     18  N         17.9830   -7.5660    8.5760 N.am   15  GLY15      -0.1957
     19  CA        17.9220   -8.3570    9.7860 C.3    15  GLY15       0.1869
     20  C         16.9160   -9.4740    9.6150 C.2    15  GLY15       0.2309
     21  O         15.9730   -9.3550    8.8300 O.2    15  GLY15      -0.2863
     22  N         13.7740   -8.5390    7.8790 N.3    19  VAL19      -0.1245
     23  CA        13.7030   -7.1440    7.4860 C.3    19  VAL19       0.1561
     24  C         14.5740   -7.0140    6.2520 C.2    19  VAL19       0.2260
     25  O         15.7420   -7.3910    6.2800 O.2    19  VAL19      -0.2867
     26  CB        14.1910   -6.1940    8.6220 C.3    19  VAL19       0.0252
     27  CG1       14.1410   -4.7260    8.1630 C.3    19  VAL19       0.0019
     28  CG2       13.3590   -6.4030    9.8780 C.3    19  VAL19       0.0019
     29  N         12.6530    0.1980    4.4870 N.3    32  ALA32      -0.1245
     30  CA        12.9040   -1.0900    5.1070 C.3    32  ALA32       0.1562
     31  C         11.5690   -1.8180    5.1320 C.2    32  ALA32       0.2260
     32  O         10.5340   -1.2670    5.5100 O.2    32  ALA32      -0.2867
     33  CB        13.4670   -0.9270    6.5290 C.3    32  ALA32       0.0290
     34  N          9.5370   -5.0090    6.6300 N.3    34  LYS34      -0.1245
     35  CA         9.4890   -6.1040    7.5900 C.3    34  LYS34       0.1561
     36  C          8.4800   -7.1000    7.0320 C.2    34  LYS34       0.2260
     37  O          7.3300   -6.7350    6.7540 O.2    34  LYS34      -0.2867
     38  CB         9.0380   -5.6200    8.9770 C.3    34  LYS34       0.0271
     39  CG         9.3370   -6.6450   10.0900 C.3    34  LYS34       0.0035
     40  CD         8.5590   -6.3400   11.3730 C.3    34  LYS34       0.0206
     41  CE         8.7080   -7.4580   12.3950 C.3    34  LYS34       0.1093
     42  NZ         7.8190   -7.2810   13.5880 N.3    34  LYS34      -0.1314
     43  N          1.7860   -3.8350   16.8050 N.3    44  GLU44      -0.1245
     44  CA         2.9090   -3.0760   16.2700 C.3    44  GLU44       0.1567
     45  C          2.4330   -2.1130   15.1950 C.2    44  GLU44       0.2260
     46  O          2.9370   -1.0080   15.0780 O.2    44  GLU44      -0.2867
     47  CB         3.9810   -3.9980   15.6930 C.3    44  GLU44       0.0388
     48  CG         5.1320   -3.2540   15.0310 C.3    44  GLU44       0.1160
     49  CD         6.2480   -4.1740   14.5950 C.2    44  GLU44       0.3649
     50  OE1        6.0210   -5.3920   14.5840 O.co2  44  GLU44      -0.2457
     51  OE2        7.3480   -3.6830   14.2570 O.co2  44  GLU44      -0.2457
     52  N         11.4120    5.7620   14.3230 N.3    57  VAL57      -0.1245
     53  CA        11.3550    5.1900   12.9970 C.3    57  VAL57       0.1561
     54  C          9.9510    5.3810   12.3870 C.2    57  VAL57       0.2260
     55  O          8.9330    4.9850   12.9560 O.2    57  VAL57      -0.2867
     56  CB        11.8600    3.7210   12.9540 C.3    57  VAL57       0.0252
     57  CG1       11.6840    3.1350   11.5320 C.3    57  VAL57       0.0019
     58  CG2       13.3460    3.6610   13.3650 C.3    57  VAL57       0.0019
     59  N          8.6920    0.7640    6.5220 N.3    73  LEU73      -0.1231
     60  CA         9.2130    1.7130    7.4950 C.3    73  LEU73       0.1693
     61  C         10.4440    2.4370    6.9820 C.2    73  LEU73       0.2592
     62  O         11.1020    2.0170    6.0340 O.2    73  LEU73      -0.2718
     63  CB         9.6060    0.9470    8.7760 C.3    73  LEU73       0.0284
     64  CG         8.3790    0.4000    9.5210 C.3    73  LEU73       0.0019
     65  CD1        8.3340   -1.1180    9.4380 C.3    73  LEU73       0.0001
     66  CD2        8.3550    0.8990   10.9510 C.3    73  LEU73       0.0001
     67  N         10.7920    3.4930    7.6900 N.am   74  GLU74      -0.1966
     68  CA        11.9610    4.2870    7.3740 C.3    74  GLU74       0.1733
     69  C         13.2250    3.4190    7.3210 C.2    74  GLU74       0.2616
     70  O         13.4840    2.5970    8.2260 O.2    74  GLU74      -0.2715
     71  CB        12.1070    5.3180    8.4990 C.3    74  GLU74       0.0429
     72  CG        13.2190    6.3050    8.3280 C.3    74  GLU74       0.1163
     73  CD        13.1630    7.3780    9.3820 C.2    74  GLU74       0.3649
     74  OE1       14.0060    8.2910    9.3270 O.co2  74  GLU74      -0.2457
     75  OE2       12.2870    7.2950   10.2760 O.co2  74  GLU74      -0.2457
     76  N         14.0210    3.6060    6.2750 N.am   75  TYR75      -0.1960
     77  CA        15.3170    2.9390    6.1750 C.3    75  TYR75       0.1771
     78  C         16.3100    3.8190    6.9530 C.2    75  TYR75       0.2620
     79  O         16.3970    5.0270    6.7150 O.2    75  TYR75      -0.2715
     80  CB        15.7900    2.8220    4.7050 C.3    75  TYR75       0.0574
     81  CG        17.2040    2.2700    4.5840 C.ar   75  TYR75      -0.0198
     82  CD1       17.5680    1.0910    5.2250 C.ar   75  TYR75      -0.0009
     83  CD2       18.1770    2.9380    3.8470 C.ar   75  TYR75      -0.0009
     84  CE1       18.8520    0.5640    5.0900 C.ar   75  TYR75       0.0417
     85  CE2       19.4570    2.4130    3.7040 C.ar   75  TYR75       0.0417
     86  CZ        19.7910    1.2460    4.3520 C.ar   75  TYR75       0.1957
     87  OH        21.0650    0.7450    4.2480 O.3    75  TYR75      -0.2866
     88  N         17.0630    3.2180    7.8630 N.am   76  CYS76      -0.1954
     89  CA        18.0420    3.9380    8.6790 C.3    76  CYS76       0.1843
     90  C         19.4130    3.3900    8.3110 C.2    76  CYS76       0.2626
     91  O         19.8500    2.3710    8.8390 O.2    76  CYS76      -0.2714
     92  CB        17.7420    3.7110   10.1830 C.3    76  CYS76       0.0997
     93  SG        16.1080    4.3320   10.7340 S.3    76  CYS76      -0.0797
     94  N         20.0700    4.0430    7.3580 N.am   77  SER77      -0.1936
     95  CA        21.3340    3.5390    6.7890 C.3    77  SER77       0.2055
     96  C         22.5190    3.4140    7.7300 C.2    77  SER77       0.2644
     97  O         23.4440    2.6700    7.4300 O.2    77  SER77      -0.2714
     98  CB        21.7370    4.3310    5.5510 C.3    77  SER77       0.2130
     99  OG        22.0450    5.6740    5.9020 O.3    77  SER77      -0.2179
    100  N         22.4810    4.0930    8.8790 N.am   78  GLY78      -0.1939
    101  CA        23.5500    3.9910    9.8720 C.3    78  GLY78       0.2014
    102  C         23.5250    2.7210   10.7060 C.2    78  GLY78       0.2639
    103  O         24.4610    2.4440   11.4430 O.2    78  GLY78      -0.2714
    104  N         22.4610    1.9410   10.6070 N.am   79  GLY79      -0.1939
    105  CA        22.3200    0.6920   11.3450 C.3    79  GLY79       0.2014
    106  C         21.9840    0.8630   12.8280 C.2    79  GLY79       0.2638
    107  O         21.4090    1.8690   13.2410 O.2    79  GLY79      -0.2714
    108  N         22.3190   -0.1440   13.6210 N.am   80  GLU80      -0.1977
    109  CA        22.0140   -0.1600   15.0500 C.3    80  GLU80       0.1602
    110  C         23.0510    0.5610   15.8850 C.2    80  GLU80       0.2287
    111  O         24.2380    0.5070   15.6030 O.2    80  GLU80      -0.2864
    112  CB        21.9180   -1.5950   15.5780 C.3    80  GLU80       0.0415
    113  CG        20.9080   -2.4660   14.8940 C.3    80  GLU80       0.1163
    114  CD        20.9380   -3.8880   15.4470 C.2    80  GLU80       0.3649
    115  OE1       20.1370   -4.7210   14.9830 O.co2  80  GLU80      -0.2457
    116  OE2       21.7520   -4.1600   16.3630 O.co2  80  GLU80      -0.2457
    117  N         20.1560   -2.4910   20.2870 N.3   123  GLU123     -0.1231
    118  CA        19.7280   -3.2100   19.0740 C.3   123  GLU123      0.1699
    119  C         18.4740   -2.5860   18.4730 C.2   123  GLU123      0.2592
    120  O         18.2000   -2.7310   17.2730 O.2   123  GLU123     -0.2718
    121  CB        19.4050   -4.6960   19.4080 C.3   123  GLU123      0.0402
    122  CG        20.6230   -5.4760   19.9310 C.3   123  GLU123      0.1161
    123  CD        20.7390   -5.4730   21.4750 C.2   123  GLU123      0.3649
    124  OE1       20.4310   -4.4460   22.1300 O.co2 123  GLU123     -0.2457
    125  OE2       21.2350   -6.4740   22.0370 O.co2 123  GLU123     -0.2457
    126  N         17.6930   -1.9240   19.3180 N.am  124  ASN124     -0.1974
    127  CA        16.4200   -1.3200   18.8860 C.3   124  ASN124      0.1688
    128  C         16.5210    0.1980   18.6460 C.2   124  ASN124      0.2292
    129  O         15.5030    0.8900   18.5540 O.2   124  ASN124     -0.2864
    130  CB        15.3640   -1.5750   19.9830 C.3   124  ASN124      0.1181
    131  CG        14.8460   -2.9870   19.9300 C.2   124  ASN124      0.2629
    132  OD1       15.0130   -3.6630   18.9080 O.2   124  ASN124     -0.2716
    133  ND2       14.2860   -3.4690   21.0240 N.am  124  ASN124     -0.0877
    134  N         18.0230    2.7650   16.1060 N.3   126  LEU126     -0.1245
    135  CA        18.6300    2.8210   14.7650 C.3   126  LEU126      0.1561
    136  C         19.2090    4.1900   14.4690 C.2   126  LEU126      0.2260
    137  O         18.8840    5.1650   15.1340 O.2   126  LEU126     -0.2867
    138  CB        17.6370    2.3560   13.6850 C.3   126  LEU126      0.0270
    139  CG        17.0380    0.9600   13.9510 C.3   126  LEU126      0.0019
    140  CD1       16.0550    0.5600   12.8500 C.3   126  LEU126      0.0001
    141  CD2       18.1500   -0.1120   14.1530 C.3   126  LEU126      0.0001
    142  N         13.1260    2.1260   17.4500 N.3   136  SER136     -0.1202
    143  CA        12.4390    1.1890   16.5690 C.3   136  SER136      0.2020
    144  C         11.8780    0.0000   17.3510 C.2   136  SER136      0.2618
    145  O         12.1740   -0.1740   18.5360 O.2   136  SER136     -0.2717
    146  CB        13.4170    0.6550   15.5050 C.3   136  SER136      0.2103
    147  OG        14.2830   -0.3180   16.0740 O.3   136  SER136     -0.2182
    148  N         11.1390   -0.8640   16.6440 N.am  137  ASP137     -0.1973
    149  CA        10.5520   -2.0530   17.2380 C.3   137  ASP137      0.1709
    150  C          9.5290   -1.8150   18.3160 C.2   137  ASP137      0.2293
    151  O          9.8130   -1.9740   19.5100 O.2   137  ASP137     -0.2864
    152  CB        11.5640   -3.1050   17.6990 C.3   137  ASP137      0.1436
    153  CG        10.8970   -4.4800   17.8760 C.2   137  ASP137      0.3671
    154  OD1        9.6540   -4.5530   17.6650 O.co2 137  ASP137     -0.2456
    155  OD2       11.6020   -5.4790   18.1610 O.co2 137  ASP137     -0.2456
@<TRIPOS>BOND
     1     1     2    1
     2     2     5    1
     3     2     3    1
     4     5     6    1
     5     3     4    2
     6     6     7    1
     7     9     7   am
     8     7     8    2
     9    85    83   ar
    10    85    86   ar
    11    83    81   ar
    12    87    86    1
    13    86    84   ar
    14    29    30    1
    15    81    80    1
    16    81    82   ar
    17    80    77    1
    18    84    82   ar
    19    30    31    1
    20    30    33    1
    21    31    32    2
    22    98    99    1
    23    98    95    1
    24    17    15    1
    25    15    16    1
    26    15    14    1
    27    10    11    1
    28    62    61    2
    29    77    76    1
    30    77    78    1
    31    24    25    2
    32    24    23    1
    33    76    69   am
    34    59    60    1
    35    34    35    1
    36    79    78    2
    37    37    36    2
    38    95    94    1
    39    95    96    1
    40    78    88   am
    41    11    14    1
    42    11    12    1
    43    61    60    1
    44    61    67   am
    45    36    35    1
    46    69    68    1
    47    69    70    2
    48    94    90   am
    49    68    67    1
    50    68    71    1
    51    97    96    2
    52    23    22    1
    53    23    26    1
    54    60    63    1
    55    35    38    1
    56    96   100   am
    57    88    89    1
    58    27    26    1
    59    12    18   am
    60    12    13    2
    61    90    89    1
    62    90    91    2
    63    72    71    1
    64    72    73    1
    65    18    19    1
    66    26    28    1
    67    89    92    1
    68    63    64    1
    69    21    20    2
    70   100   101    1
    71    38    39    1
    72    74    73   ar
    73    73    75   ar
    74    65    64    1
    75    64    66    1
    76    20    19    1
    77   101   102    1
    78    39    40    1
    79    92    93    1
    80   104   102   am
    81   104   105    1
    82   102   103    2
    83   105   106    1
    84    40    41    1
    85    57    56    1
    86    54    55    2
    87    54    53    1
    88    41    42    1
    89   106   107    2
    90   106   108   am
    91   140   139    1
    92    56    53    1
    93    56    58    1
    94    53    52    1
    95   108   109    1
    96   138   139    1
    97   138   135    1
    98   139   141    1
    99    51    49   ar
   100   136   135    1
   101   136   137    2
   102    50    49   ar
   103    49    48    1
   104   135   134    1
   105   113   114    1
   106   113   112    1
   107   115   114   ar
   108    48    47    1
   109   109   112    1
   110   109   110    1
   111    46    45    2
   112    45    44    1
   113   114   116   ar
   114   146   147    1
   115   146   143    1
   116   111   110    2
   117    47    44    1
   118    44    43    1
   119   143   144    1
   120   143   142    1
   121   148   149    1
   122   148   144   am
   123   149   152    1
   124   149   150    1
   125   120   119    2
   126   144   145    2
   127   154   153   ar
   128   152   153    1
   129   153   155   ar
   130   150   151    2
   131   119   118    1
   132   119   126   am
   133   129   128    2
   134   128   127    1
   135   127   126    1
   136   127   130    1
   137   132   131    2
   138   118   121    1
   139   118   117    1
   140   121   122    1
   141   131   130    1
   142   131   133   am
   143   122   123    1
   144   123   125   ar
   145   123   124   ar
