@<TRIPOS>MOLECULE
tmp/2r0yA00.pdb
 102 97 0 0 0
SMALL
GASTEIGER

@<TRIPOS>ATOM
      1  N         33.7830    7.5160    8.2820 N.3   173  PRO173     -0.2102
      2  CA        33.0510    8.4170    7.3660 C.3   173  PRO173      0.1504
      3  C         32.7280    9.8050    7.9200 C.2   173  PRO173      0.2575
      4  O         32.0920   10.5930    7.2090 O.2   173  PRO173     -0.2718
      5  CB        31.7510    7.6670    7.1070 C.3   173  PRO173      0.0282
      6  CG        31.5270    6.8850    8.3100 C.3   173  PRO173      0.0208
      7  CD        32.8930    6.4780    8.8290 C.3   173  PRO173      0.0893
      8  N         33.1420   10.0750    9.1750 N.am  174  PHE174     -0.1977
      9  CA        32.8790   11.3110    9.8850 C.3   174  PHE174      0.1639
     10  C         34.1290   12.1750    9.9480 C.2   174  PHE174      0.2290
     11  O         34.0850   13.2810   10.4760 O.2   174  PHE174     -0.2864
     12  CB        32.3780   11.0060   11.3150 C.3   174  PHE174      0.0560
     13  CG        31.1040   10.1960   11.3300 C.ar  174  PHE174     -0.0200
     14  CD1       29.8870   10.8020   11.0790 C.ar  174  PHE174     -0.0042
     15  CD2       31.1470    8.8270   11.5390 C.ar  174  PHE174     -0.0042
     16  CE1       28.7070   10.0510   11.0680 C.ar  174  PHE174     -0.0003
     17  CE2       29.9810    8.0530   11.5230 C.ar  174  PHE174     -0.0003
     18  CZ        28.7490    8.6820   11.2920 C.ar  174  PHE174     -0.0000
     19  N         36.0670   13.5570    7.4330 N.3   175  GLU175     -0.1245
     20  CA        36.2240   14.6560    6.4900 C.3   175  GLU175      0.1567
     21  C         34.8580   14.9420    5.9010 C.2   175  GLU175      0.2260
     22  O         34.0420   14.0250    5.7140 O.2   175  GLU175     -0.2867
     23  CB        37.2060   14.2740    5.3620 C.3   175  GLU175      0.0388
     24  CG        38.5420   13.7420    5.8480 C.3   175  GLU175      0.1160
     25  CD        39.4500   14.8500    6.3630 C.2   175  GLU175      0.3649
     26  OE1       39.1360   16.0380    6.1110 O.co2 175  GLU175     -0.2457
     27  OE2       40.4720   14.5390    7.0280 O.co2 175  GLU175     -0.2457
     28  N         32.0670   15.6750    3.1610 N.3   177  VAL177     -0.1245
     29  CA        31.8580   15.1530    1.8070 C.3   177  VAL177      0.1561
     30  C         32.1660   16.2590    0.7660 C.2   177  VAL177      0.2260
     31  O         32.0730   17.4490    1.0760 O.2   177  VAL177     -0.2867
     32  CB        30.4310   14.5670    1.6120 C.3   177  VAL177      0.0252
     33  CG1       29.3400   15.6690    1.5800 C.3   177  VAL177      0.0019
     34  CG2       30.3730   13.7540    0.3050 C.3   177  VAL177      0.0019
     35  N         28.4510   15.9980   -3.8980 N.3   182  LEU182     -0.1245
     36  CA        27.1940   15.9110   -3.1950 C.3   182  LEU182      0.1561
     37  C         26.6500   17.2990   -2.7920 C.2   182  LEU182      0.2260
     38  O         26.5090   17.5790   -1.5990 O.2   182  LEU182     -0.2867
     39  CB        27.3790   15.0190   -1.9520 C.3   182  LEU182      0.0270
     40  CG        26.1900   14.2100   -1.4400 C.3   182  LEU182      0.0019
     41  CD1       25.5080   13.3410   -2.4920 C.3   182  LEU182      0.0001
     42  CD2       26.6450   13.3500   -0.2210 C.3   182  LEU182      0.0001
     43  N         23.7700   18.5670   -2.7190 N.3   184  GLU184     -0.1231
     44  CA        22.5610   18.5410   -1.8670 C.3   184  GLU184      0.1699
     45  C         22.8630   18.4480   -0.3840 C.2   184  GLU184      0.2592
     46  O         22.0470   18.9050    0.4330 O.2   184  GLU184     -0.2718
     47  CB        21.5850   17.4300   -2.2640 C.3   184  GLU184      0.0402
     48  CG        22.1380   16.0240   -2.1240 C.3   184  GLU184      0.1161
     49  CD        22.7710   15.4800   -3.4060 C.2   184  GLU184      0.3649
     50  OE1       22.5540   14.2910   -3.6370 O.co2 184  GLU184     -0.2457
     51  OE2       23.4680   16.1950   -4.1700 O.co2 184  GLU184     -0.2457
     52  N         24.0170   17.8580   -0.0220 N.am  185  TYR185     -0.1976
     53  CA        24.4010   17.7670    1.3830 C.3   185  TYR185      0.1639
     54  C         24.4240   19.1810    1.9890 C.2   185  TYR185      0.2290
     55  O         23.9060   19.4110    3.1060 O.2   185  TYR185     -0.2864
     56  CB        25.7650   17.0990    1.5170 C.3   185  TYR185      0.0560
     57  CG        26.1690   16.8980    2.9600 C.ar  185  TYR185     -0.0198
     58  CD1       25.8200   15.7270    3.6510 C.ar  185  TYR185     -0.0009
     59  CD2       26.8940   17.8780    3.6320 C.ar  185  TYR185     -0.0009
     60  CE1       26.1950   15.5490    4.9880 C.ar  185  TYR185      0.0417
     61  CE2       27.2720   17.7020    4.9580 C.ar  185  TYR185      0.0417
     62  CZ        26.9260   16.5420    5.6170 C.ar  185  TYR185      0.1957
     63  OH        27.3160   16.3860    6.9360 O.3   185  TYR185     -0.2866
     64  N         28.6070   16.8940   14.6090 N.3   218  VAL218     -0.1245
     65  CA        29.0890   15.8930   13.6330 C.3   218  VAL218      0.1561
     66  C         28.0940   14.7360   13.5020 C.2   218  VAL218      0.2260
     67  O         27.6960   14.3580   12.3830 O.2   218  VAL218     -0.2867
     68  CB        30.5120   15.3270   13.9770 C.3   218  VAL218      0.0252
     69  CG1       30.8890   14.1190   13.0480 C.3   218  VAL218      0.0019
     70  CG2       31.5610   16.4200   13.8980 C.3   218  VAL218      0.0019
     71  N         24.6370   13.7590   10.7150 N.3   222  ALA222     -0.1245
     72  CA        24.4420   12.4780   10.0160 C.3   222  ALA222      0.1562
     73  C         23.0100   11.9720   10.1870 C.2   222  ALA222      0.2260
     74  O         22.4570   11.3530    9.2930 O.2   222  ALA222     -0.2867
     75  CB        25.4480   11.4540   10.5050 C.3   222  ALA222      0.0290
     76  N         20.9160   14.3330    7.6050 N.3   225  PHE225     -0.1227
     77  CA        21.0810   14.0330    6.1920 C.3   225  PHE225      0.1736
     78  C         20.6060   12.6240    5.7980 C.2   225  PHE225      0.2595
     79  O         19.9880   12.4350    4.7360 O.2   225  PHE225     -0.2718
     80  CB        22.5230   14.2560    5.7440 C.3   225  PHE225      0.0547
     81  CG        22.7050   14.0840    4.2620 C.ar  225  PHE225     -0.0202
     82  CD1       22.1850   15.0310    3.3680 C.ar  225  PHE225     -0.0042
     83  CD2       23.3490   12.9460    3.7490 C.ar  225  PHE225     -0.0042
     84  CE1       22.3330   14.8770    1.9870 C.ar  225  PHE225     -0.0003
     85  CE2       23.5020   12.7930    2.3640 C.ar  225  PHE225     -0.0003
     86  CZ        22.9730   13.7560    1.4800 C.ar  225  PHE225     -0.0000
     87  N         20.8670   11.6470    6.6470 N.am  226  ASN226     -0.1974
     88  CA        20.6000   10.2520    6.2810 C.3   226  ASN226      0.1688
     89  C         19.2860    9.7010    6.8150 C.2   226  ASN226      0.2292
     90  O         18.7870   10.1640    7.8340 O.2   226  ASN226     -0.2864
     91  CB        21.7600    9.3660    6.7440 C.3   226  ASN226      0.1181
     92  CG        23.0810    9.7920    6.1320 C.2   226  ASN226      0.2629
     93  OD1       23.3710    9.4680    4.9650 O.2   226  ASN226     -0.2716
     94  ND2       23.8790   10.5430    6.8990 N.am  226  ASN226     -0.0877
     95  N         25.1720    4.4030    8.1320 N.3   232  ILE232     -0.1245
     96  CA        25.8700    5.5760    8.6440 C.3   232  ILE232      0.1561
     97  C         25.0590    6.2540    9.7600 C.2   232  ILE232      0.2260
     98  O         25.6390    6.8010   10.6910 O.2   232  ILE232     -0.2867
     99  CB        26.2680    6.5790    7.5030 C.3   232  ILE232      0.0252
    100  CG1       27.2390    7.6400    8.0080 C.3   232  ILE232      0.0019
    101  CG2       25.0320    7.1950    6.8500 C.3   232  ILE232      0.0019
    102  CD1       28.0180    8.2780    6.8940 C.3   232  ILE232      0.0001
@<TRIPOS>BOND
     1    51    49   ar
     2    35    36    1
     3    50    49   ar
     4    49    48    1
     5    36    37    1
     6    36    39    1
     7    37    38    2
     8    43    44    1
     9    41    40    1
    10    47    48    1
    11    47    44    1
    12    39    40    1
    13    44    45    1
    14    40    42    1
    15    45    52   am
    16    45    46    2
    17    52    53    1
    18    34    32    1
    19    30    31    2
    20    30    29    1
    21    53    56    1
    22    53    54    1
    23    86    84   ar
    24    86    85   ar
    25    56    57    1
    26    33    32    1
    27    32    29    1
    28    29    28    1
    29    84    82   ar
    30    54    55    2
    31    85    83   ar
    32    57    59   ar
    33    57    58   ar
    34    82    81   ar
    35    59    61   ar
    36    58    60   ar
    37    83    81   ar
    38    81    80    1
    39    79    78    2
    40    61    62   ar
    41    93    92    2
    42    60    62   ar
    43    23    24    1
    44    23    20    1
    45    62    63    1
    46    22    21    2
    47    80    77    1
    48    78    77    1
    49    78    87   am
    50    24    25    1
    51    21    20    1
    52    26    25   ar
    53    92    91    1
    54    92    94   am
    55    77    76    1
    56    88    87    1
    57    88    91    1
    58    88    89    1
    59    25    27   ar
    60    20    19    1
    61    89    90    2
    62   101    99    1
    63   102   100    1
    64     5     2    1
    65     5     6    1
    66     4     3    2
    67     2     3    1
    68     2     1    1
    69    99   100    1
    70    99    96    1
    71     3     8   am
    72    95    96    1
    73     1     7    1
    74     6     7    1
    75    96    97    1
    76     8     9    1
    77    74    73    2
    78    97    98    2
    79     9    10    1
    80     9    12    1
    81    10    11    2
    82    72    73    1
    83    72    75    1
    84    72    71    1
    85    16    14   ar
    86    16    18   ar
    87    14    13   ar
    88    18    17   ar
    89    12    13    1
    90    13    15   ar
    91    17    15   ar
    92    67    66    2
    93    69    68    1
    94    66    65    1
    95    65    68    1
    96    65    64    1
    97    70    68    1
