@<TRIPOS>MOLECULE
tmp/2r11C00.pdb
 123 120 0 0 0
SMALL
GASTEIGER

@<TRIPOS>ATOM
      1  N         -2.1900   59.1190   51.6470 N.3    55  ALA55      -0.1245
      2  CA        -3.0910   58.0390   52.0480 C.3    55  ALA55       0.1562
      3  C         -2.8930   56.8210   51.1720 C.2    55  ALA55       0.2260
      4  O         -2.6890   56.9620   49.9560 O.2    55  ALA55      -0.2867
      5  CB        -4.5620   58.5220   51.9650 C.3    55  ALA55       0.0290
      6  N         -4.5850   61.7720   67.1030 N.3    98  TYR98      -0.1241
      7  CA        -3.5150   61.7650   66.0880 C.3    98  TYR98       0.1605
      8  C         -2.3630   62.6770   66.4330 C.2    98  TYR98       0.2264
      9  O         -1.2180   62.3550   66.1050 O.2    98  TYR98      -0.2867
     10  CB        -4.0450   62.0750   64.6860 C.3    98  TYR98       0.0534
     11  CG        -4.9220   60.9490   64.1910 C.ar   98  TYR98      -0.0201
     12  CD1       -4.4250   59.6480   64.0820 C.ar   98  TYR98      -0.0009
     13  CD2       -6.2340   61.1770   63.8370 C.ar   98  TYR98      -0.0009
     14  CE1       -5.2220   58.6120   63.6350 C.ar   98  TYR98       0.0417
     15  CE2       -7.0300   60.1680   63.3980 C.ar   98  TYR98       0.0417
     16  CZ        -6.5310   58.8810   63.3110 C.ar   98  TYR98       0.1957
     17  OH        -7.3550   57.8880   62.8600 O.3    98  TYR98      -0.2866
     18  N         -0.8310   64.8750   51.0270 N.3   119  SER119     -0.1202
     19  CA        -2.1950   64.2700   51.1180 C.3   119  SER119      0.2020
     20  C         -2.6030   64.1230   52.6120 C.2   119  SER119      0.2618
     21  O         -2.6400   65.1440   53.3370 O.2   119  SER119     -0.2717
     22  CB        -2.2440   62.9580   50.2910 C.3   119  SER119      0.2103
     23  OG        -3.3370   62.1030   50.6040 O.3   119  SER119     -0.2182
     24  N         -2.8580   62.9000   53.0820 N.am  120  LEU120     -0.1979
     25  CA        -3.1670   62.6380   54.5050 C.3   120  LEU120      0.1596
     26  C         -2.0570   63.1570   55.4420 C.2   120  LEU120      0.2287
     27  O         -2.3270   63.7470   56.4870 O.2   120  LEU120     -0.2864
     28  CB        -3.4330   61.1290   54.7410 C.3   120  LEU120      0.0297
     29  CG        -3.7070   60.6390   56.1750 C.3   120  LEU120      0.0022
     30  CD1       -4.8670   61.4170   56.7690 C.3   120  LEU120      0.0001
     31  CD2       -3.9720   59.0960   56.2460 C.3   120  LEU120      0.0001
     32  N         -2.3360   66.9230   56.0380 N.3   123  LEU123     -0.1231
     33  CA        -3.4020   67.2100   57.0300 C.3   123  LEU123      0.1693
     34  C         -2.9300   66.9220   58.4560 C.2   123  LEU123      0.2592
     35  O         -3.2330   67.6610   59.3980 O.2   123  LEU123     -0.2718
     36  CB        -4.6190   66.3440   56.7230 C.3   123  LEU123      0.0284
     37  CG        -5.8280   66.3720   57.6620 C.3   123  LEU123      0.0019
     38  CD1       -6.2020   67.7960   58.0240 C.3   123  LEU123      0.0001
     39  CD2       -6.9750   65.6200   56.9600 C.3   123  LEU123      0.0001
     40  N         -2.2080   65.8220   58.6170 N.am  124  HIS124     -0.1976
     41  CA        -1.5970   65.5190   59.9190 C.3   124  HIS124      0.1656
     42  C         -0.6250   66.6030   60.3690 C.2   124  HIS124      0.2291
     43  O         -0.6240   67.0020   61.5310 O.2   124  HIS124     -0.2864
     44  CB        -0.8790   64.1550   59.8840 C.3   124  HIS124      0.0771
     45  CG        -1.7920   62.9970   60.1050 C.ar  124  HIS124      0.0820
     46  ND1       -1.7990   62.2680   61.2720 N.ar  124  HIS124     -0.2267
     47  CD2       -2.8110   62.5130   59.3500 C.ar  124  HIS124      0.1154
     48  CE1       -2.7330   61.3330   61.1970 C.ar  124  HIS124      0.1986
     49  NE2       -3.3670   61.4670   60.0420 N.ar  124  HIS124     -0.2212
     50  N         -4.7600   66.6000   52.2080 N.3   143  ALA143     -0.1245
     51  CA        -6.1050   66.0370   52.1660 C.3   143  ALA143      0.1562
     52  C         -7.0110   67.0930   52.8010 C.2   143  ALA143      0.2260
     53  O         -6.7210   67.5750   53.8900 O.2   143  ALA143     -0.2867
     54  CB        -6.1740   64.7520   52.9220 C.3   143  ALA143      0.0290
     55  N        -13.1960   67.8570   49.9740 N.3   149  PHE149     -0.1241
     56  CA       -12.9350   67.0420   48.7960 C.3   149  PHE149      0.1605
     57  C        -14.0400   67.2810   47.7560 C.2   149  PHE149      0.2264
     58  O        -15.2420   67.3240   48.0970 O.2   149  PHE149     -0.2867
     59  CB       -12.9730   65.5420   49.1150 C.3   149  PHE149      0.0534
     60  CG       -11.7900   65.0080   49.8730 C.ar  149  PHE149     -0.0203
     61  CD1      -10.4910   65.3130   49.5110 C.ar  149  PHE149     -0.0042
     62  CD2      -11.9820   64.1070   50.9090 C.ar  149  PHE149     -0.0042
     63  CE1       -9.4100   64.7450   50.1970 C.ar  149  PHE149     -0.0003
     64  CE2      -10.8950   63.5470   51.5910 C.ar  149  PHE149     -0.0003
     65  CZ        -9.6320   63.8720   51.2350 C.ar  149  PHE149     -0.0000
     66  N        -13.3920   62.6680   43.9100 N.3   153  PHE153     -0.1241
     67  CA       -12.4370   61.9030   44.7030 C.3   153  PHE153      0.1605
     68  C        -13.0840   60.6570   45.2830 C.2   153  PHE153      0.2264
     69  O        -12.5190   59.5610   45.2020 O.2   153  PHE153     -0.2867
     70  CB       -11.8440   62.7470   45.8490 C.3   153  PHE153      0.0534
     71  CG       -11.1410   61.9130   46.8910 C.ar  153  PHE153     -0.0203
     72  CD1       -9.9350   61.3100   46.6050 C.ar  153  PHE153     -0.0042
     73  CD2      -11.7250   61.6710   48.1190 C.ar  153  PHE153     -0.0042
     74  CE1       -9.2990   60.5220   47.5270 C.ar  153  PHE153     -0.0003
     75  CE2      -11.0860   60.8910   49.0590 C.ar  153  PHE153     -0.0003
     76  CZ        -9.8750   60.3040   48.7590 C.ar  153  PHE153     -0.0000
     77  N         -8.3580   54.6750   39.1650 N.3   169  PHE169     -0.1241
     78  CA        -8.0940   55.6660   40.2010 C.3   169  PHE169      0.1605
     79  C         -6.7990   56.3960   39.8980 C.2   169  PHE169      0.2264
     80  O         -6.7480   57.6380   39.9300 O.2   169  PHE169     -0.2867
     81  CB        -7.9930   54.9850   41.5690 C.3   169  PHE169      0.0534
     82  CG        -7.7110   55.9200   42.6970 C.ar  169  PHE169     -0.0203
     83  CD1       -8.7450   56.5680   43.3600 C.ar  169  PHE169     -0.0042
     84  CD2       -6.4130   56.1230   43.1310 C.ar  169  PHE169     -0.0042
     85  CE1       -8.4760   57.4140   44.4290 C.ar  169  PHE169     -0.0003
     86  CE2       -6.1460   56.9630   44.2030 C.ar  169  PHE169     -0.0003
     87  CZ        -7.1790   57.6050   44.8510 C.ar  169  PHE169     -0.0000
     88  N        -10.4780   63.0340   61.1860 N.3   205  PHE205     -0.1228
     89  CA       -10.0550   63.3470   59.8180 C.3   205  PHE205      0.1721
     90  C        -10.9540   62.6120   58.8030 C.2   205  PHE205      0.2437
     91  O        -11.5700   61.6110   59.1460 O.2   205  PHE205     -0.2733
     92  CB        -8.6190   62.9060   59.5880 C.3   205  PHE205      0.0547
     93  CG        -7.5890   63.7140   60.3230 C.ar  205  PHE205     -0.0202
     94  CD1       -7.6820   65.1030   60.4160 C.ar  205  PHE205     -0.0042
     95  CD2       -6.4550   63.1040   60.8090 C.ar  205  PHE205     -0.0042
     96  CE1       -6.7230   65.8290   61.0760 C.ar  205  PHE205     -0.0003
     97  CE2       -5.4910   63.8430   61.4640 C.ar  205  PHE205     -0.0003
     98  CZ        -5.6250   65.2040   61.5790 C.ar  205  PHE205     -0.0000
     99  N        -11.0550   63.1260   57.5570 N.am  206  PRO206     -0.2729
    100  CA       -10.4620   64.3610   57.0710 C.3   206  PRO206      0.1401
    101  C        -11.1560   65.5630   57.6770 C.2   206  PRO206      0.2269
    102  O        -12.2020   65.4260   58.3240 O.2   206  PRO206     -0.2865
    103  CB       -10.6710   64.2920   55.5620 C.3   206  PRO206      0.0296
    104  CG       -11.8750   63.4700   55.4060 C.3   206  PRO206      0.0237
    105  CD       -11.8260   62.4490   56.4950 C.3   206  PRO206      0.0939
    106  N         -8.4190   66.6400   43.5140 N.3   231  ILE231     -0.1245
    107  CA        -9.2500   66.4660   44.7110 C.3   231  ILE231      0.1561
    108  C         -9.9850   67.7310   45.1500 C.2   231  ILE231      0.2260
    109  O        -10.8720   67.6620   45.9900 O.2   231  ILE231     -0.2867
    110  CB        -8.4940   65.7970   45.9210 C.3   231  ILE231      0.0252
    111  CG1       -7.4540   66.7250   46.5330 C.3   231  ILE231      0.0019
    112  CG2       -7.8380   64.4500   45.4990 C.3   231  ILE231      0.0019
    113  CD1       -7.0150   66.2940   47.9310 C.3   231  ILE231      0.0001
    114  N         -1.7720   65.9970   42.0110 N.3   258  HIS258     -0.1241
    115  CA        -1.8360   65.6600   43.4230 C.3   258  HIS258      0.1621
    116  C         -0.5350   65.0930   43.9830 C.2   258  HIS258      0.2264
    117  O         -0.0690   65.5500   45.0040 O.2   258  HIS258     -0.2867
    118  CB        -2.9790   64.6670   43.6550 C.3   258  HIS258      0.0745
    119  CG        -3.2660   64.3780   45.0980 C.ar  258  HIS258      0.0817
    120  ND1       -3.7510   65.3320   45.9660 N.ar  258  HIS258     -0.2268
    121  CD2       -3.2180   63.2240   45.8030 C.ar  258  HIS258      0.1154
    122  CE1       -3.9400   64.7920   47.1550 C.ar  258  HIS258      0.1986
    123  NE2       -3.6440   63.5100   47.0790 N.ar  258  HIS258     -0.2212
@<TRIPOS>BOND
     1    77    78    1
     2    79    80    2
     3    79    78    1
     4    78    81    1
     5    81    82    1
     6   114   115    1
     7    82    84   ar
     8    82    83   ar
     9    84    86   ar
    10    83    85   ar
    11   115   118    1
    12   115   116    1
    13   106   107    1
    14   118   119    1
    15    66    67    1
    16   116   117    2
    17    86    87   ar
    18    85    87   ar
    19    67    68    1
    20    67    70    1
    21   107   108    1
    22   107   110    1
    23   119   121   ar
    24   119   120   ar
    25   108   109    2
    26    69    68    2
    27   112   110    1
    28   121   123   ar
    29    70    71    1
    30   110   111    1
    31   120   122   ar
    32   111   113    1
    33    72    71   ar
    34    72    74   ar
    35    71    73   ar
    36   123   122   ar
    37    74    76   ar
    38    57    58    2
    39    57    56    1
    40    73    75   ar
    41    76    75   ar
    42    56    59    1
    43    56    55    1
    44    59    60    1
    45    61    60   ar
    46    61    63   ar
    47    60    62   ar
    48     4     3    2
    49    63    65   ar
    50    22    23    1
    51    22    19    1
    52    62    64   ar
    53    18    19    1
    54    19    20    1
    55     3     2    1
    56    65    64   ar
    57     1     2    1
    58     5     2    1
    59    51    50    1
    60    51    52    1
    61    51    54    1
    62    20    24   am
    63    20    21    2
    64    52    53    2
    65    24    25    1
    66    25    28    1
    67    25    26    1
    68    28    29    1
    69   104   103    1
    70   104   105    1
    71    26    27    2
    72   103   100    1
    73    32    33    1
    74    29    31    1
    75    29    30    1
    76   105    99    1
    77    36    33    1
    78    36    37    1
    79    39    37    1
    80    33    34    1
    81   100    99    1
    82   100   101    1
    83    99    90   am
    84    37    38    1
    85   101   102    2
    86    34    40   am
    87    34    35    2
    88    40    41    1
    89    90    91    2
    90    90    89    1
    91    47    49   ar
    92    47    45   ar
    93    92    89    1
    94    92    93    1
    95    89    88    1
    96    44    41    1
    97    44    45    1
    98    41    42    1
    99    49    48   ar
   100    45    46   ar
   101    93    94   ar
   102    93    95   ar
   103    42    43    2
   104    94    96   ar
   105    95    97   ar
   106    96    98   ar
   107    48    46   ar
   108    97    98   ar
   109    17    16    1
   110    16    15   ar
   111    16    14   ar
   112    15    13   ar
   113    14    12   ar
   114    13    11   ar
   115    12    11   ar
   116    11    10    1
   117    10     7    1
   118     7     8    1
   119     7     6    1
   120     9     8    2
