@<TRIPOS>MOLECULE
tmp/2r14A01.pdb
 186 179 0 0 0
SMALL
GASTEIGER

@<TRIPOS>ATOM
      1  N         10.3570   54.7760   24.2380 N.3    25  THR25      -0.1218
      2  CA         9.7700   55.7070   23.2560 C.3    25  THR25       0.1862
      3  C          8.2550   55.6800   23.4080 C.2    25  THR25       0.2287
      4  O          7.6320   54.6050   23.3390 O.2    25  THR25      -0.2866
      5  CB        10.1770   55.2460   21.8480 C.3    25  THR25       0.1770
      6  OG1       11.5890   55.4150   21.7120 O.3    25  THR25      -0.2211
      7  CG2        9.4220   55.9830   20.7300 C.3    25  THR25       0.0375
      8  N          6.3880   58.6380   22.0070 N.3    27  SER27      -0.1217
      9  CA         5.9280   59.3880   20.8410 C.3    27  SER27       0.1889
     10  C          4.7860   60.3570   21.1930 C.2    27  SER27       0.2288
     11  O          3.7710   60.4350   20.4970 O.2    27  SER27      -0.2866
     12  CB         5.5610   58.4150   19.7190 C.3    27  SER27       0.2089
     13  OG         6.6950   57.6500   19.4170 O.3    27  SER27      -0.2183
     14  N         14.3150   57.3710   24.0100 N.3    55  ALA55      -0.1245
     15  CA        15.3750   57.6380   23.0850 C.3    55  ALA55       0.1562
     16  C         15.1290   59.0980   22.5840 C.2    55  ALA55       0.2260
     17  O         13.9600   59.4120   22.2230 O.2    55  ALA55      -0.2867
     18  CB        15.4160   56.6740   21.9440 C.3    55  ALA55       0.0290
     19  N         11.5820   58.6050   13.4820 N.3    65  TYR65      -0.1227
     20  CA        10.2330   58.4520   14.0060 C.3    65  TYR65       0.1736
     21  C          9.6780   59.8330   14.4090 C.2    65  TYR65       0.2595
     22  O         10.2170   60.5190   15.3060 O.2    65  TYR65      -0.2718
     23  CB        10.2870   57.5300   15.2220 C.3    65  TYR65       0.0548
     24  CG        10.8160   56.1550   14.8900 C.ar   65  TYR65      -0.0200
     25  CD1        9.9550   55.1290   14.5220 C.ar   65  TYR65      -0.0009
     26  CD2       12.1780   55.8750   14.8730 C.ar   65  TYR65      -0.0009
     27  CE1       10.4100   53.8360   14.2300 C.ar   65  TYR65       0.0417
     28  CE2       12.6520   54.5790   14.5460 C.ar   65  TYR65       0.0417
     29  CZ        11.7710   53.5790   14.2250 C.ar   65  TYR65       0.1957
     30  OH        12.2830   52.3240   13.9420 O.3    65  TYR65      -0.2866
     31  N          8.5800   60.2220   13.7650 N.am   66  VAL66      -0.1966
     32  CA         7.9580   61.5150   14.0820 C.3    66  VAL66       0.1727
     33  C          7.3360   61.4890   15.4890 C.2    66  VAL66       0.2616
     34  O          7.0450   60.4630   16.0530 O.2    66  VAL66      -0.2715
     35  CB         6.9610   61.9450   13.0260 C.3    66  VAL66       0.0290
     36  CG1        7.6510   62.0750   11.6730 C.3    66  VAL66       0.0023
     37  CG2        5.7800   61.0220   12.9050 C.3    66  VAL66       0.0023
     38  N          7.2270   62.6590   16.0740 N.am   67  TYR67      -0.1974
     39  CA         6.5940   62.9010   17.3530 C.3    67  TYR67       0.1639
     40  C          7.4270   62.4160   18.5250 C.2    67  TYR67       0.2290
     41  O          6.9110   62.3170   19.6560 O.2    67  TYR67      -0.2864
     42  CB         5.1590   62.3880   17.4280 C.3    67  TYR67       0.0560
     43  CG         4.3280   62.5950   16.1770 C.ar   67  TYR67      -0.0198
     44  CD1        4.4590   63.7550   15.3820 C.ar   67  TYR67      -0.0009
     45  CD2        3.4110   61.6040   15.7800 C.ar   67  TYR67      -0.0009
     46  CE1        3.6910   63.9120   14.2190 C.ar   67  TYR67       0.0417
     47  CE2        2.6310   61.7580   14.6370 C.ar   67  TYR67       0.0417
     48  CZ         2.7660   62.9060   13.8610 C.ar   67  TYR67       0.1957
     49  OH         2.0040   63.0590   12.7090 O.3    67  TYR67      -0.2866
     50  N         18.7130   59.3590   27.0850 N.3    97  GLN97      -0.1245
     51  CA        19.2100   58.3840   26.1380 C.3    97  GLN97       0.1566
     52  C         19.3900   59.0780   24.7770 C.2    97  GLN97       0.2260
     53  O         18.4030   59.6520   24.2070 O.2    97  GLN97      -0.2867
     54  CB        18.3120   57.1310   26.0090 C.3    97  GLN97       0.0367
     55  CG        18.9640   56.0860   25.1650 C.3    97  GLN97       0.0905
     56  CD        18.0730   54.9280   24.7990 C.2    97  GLN97       0.2608
     57  OE1       17.0340   55.1020   24.1540 O.2    97  GLN97      -0.2717
     58  NE2       18.5180   53.6960   25.1310 N.am   97  GLN97      -0.0878
     59  N         20.0600   59.4020   20.8690 N.3    99  TRP99      -0.1241
     60  CA        19.5930   58.5310   19.7770 C.3    99  TRP99       0.1605
     61  C         19.9960   59.0310   18.3970 C.2    99  TRP99       0.2264
     62  O         19.7950   60.2200   18.0920 O.2    99  TRP99      -0.2867
     63  CB        18.0760   58.4910   19.7860 C.3    99  TRP99       0.0550
     64  CG        17.3740   57.3480   19.0970 C.ar   99  TRP99       0.0003
     65  CD1       17.8540   56.1330   18.6960 C.ar   99  TRP99       0.0946
     66  CD2       15.9860   57.3700   18.8040 C.ar   99  TRP99       0.0152
     67  NE1       16.8290   55.4120   18.1630 N.ar   99  TRP99      -0.2442
     68  CE2       15.6600   56.1150   18.2720 C.ar   99  TRP99       0.0810
     69  CE3       14.9530   58.2820   19.0470 C.ar   99  TRP99       0.0012
     70  CZ2       14.3600   55.7840   17.9140 C.ar   99  TRP99       0.0191
     71  CZ3       13.6770   57.9810   18.6760 C.ar   99  TRP99       0.0001
     72  CH2       13.3850   56.7120   18.1470 C.ar   99  TRP99       0.0015
     73  N         10.5090   49.0910    9.2120 N.3   128  GLU128     -0.1245
     74  CA         9.6350   50.2260    9.0550 C.3   128  GLU128      0.1567
     75  C          9.9690   51.3040   10.0770 C.2   128  GLU128      0.2260
     76  O         10.3280   51.0010   11.2040 O.2   128  GLU128     -0.2867
     77  CB         8.1820   49.7950    9.2070 C.3   128  GLU128      0.0388
     78  CG         7.7610   48.8000    8.1200 C.3   128  GLU128      0.1160
     79  CD         6.2770   48.5690    8.1060 C.2   128  GLU128      0.3649
     80  OE1        5.7490   48.1680    9.1680 O.co2 128  GLU128     -0.2457
     81  OE2        5.6390   48.8420    7.0560 O.co2 128  GLU128     -0.2457
     82  N          8.4830   55.4520   11.3370 N.3   130  PHE130     -0.1241
     83  CA         7.1700   56.0460   11.5320 C.3   130  PHE130      0.1605
     84  C          7.2150   57.4940   11.0040 C.2   130  PHE130      0.2264
     85  O          7.8920   58.4000   11.5530 O.2   130  PHE130     -0.2867
     86  CB         6.7740   56.0190   13.0060 C.3   130  PHE130      0.0534
     87  CG         5.3230   56.3200   13.2330 C.ar  130  PHE130     -0.0203
     88  CD1        4.3600   55.3250   13.0950 C.ar  130  PHE130     -0.0042
     89  CD2        4.9180   57.6100   13.5330 C.ar  130  PHE130     -0.0042
     90  CE1        3.0090   55.5970   13.2780 C.ar  130  PHE130     -0.0003
     91  CE2        3.5720   57.8990   13.7080 C.ar  130  PHE130     -0.0003
     92  CZ         2.6130   56.8920   13.5640 C.ar  130  PHE130     -0.0000
     93  N          3.5080   53.6740   10.0720 N.3   140  LEU140     -0.1245
     94  CA         4.6740   52.8760    9.7490 C.3   140  LEU140      0.1561
     95  C          4.8760   52.8350    8.2320 C.2   140  LEU140      0.2260
     96  O          3.9140   52.7860    7.4540 O.2   140  LEU140     -0.2867
     97  CB         4.5560   51.4790   10.3320 C.3   140  LEU140      0.0270
     98  CG         4.6280   51.4130   11.8590 C.3   140  LEU140      0.0019
     99  CD1        4.0590   50.0920   12.3580 C.3   140  LEU140      0.0001
    100  CD2        6.0450   51.5800   12.3580 C.3   140  LEU140      0.0001
    101  N         22.9170   55.3900   23.2180 N.3   179  HIS179     -0.1241
    102  CA        22.1620   54.2860   22.6360 C.3   179  HIS179      0.1621
    103  C         23.0190   53.6140   21.5580 C.2   179  HIS179      0.2264
    104  O         23.1220   54.0760   20.4100 O.2   179  HIS179     -0.2867
    105  CB        20.8580   54.8020   22.0410 C.3   179  HIS179      0.0745
    106  CG        19.8240   53.7310   21.8030 C.ar  179  HIS179      0.0817
    107  ND1       20.0700   52.3570   21.9160 N.ar  179  HIS179     -0.2268
    108  CD2       18.5240   53.8520   21.4170 C.ar  179  HIS179      0.1154
    109  CE1       18.9530   51.7050   21.6400 C.ar  179  HIS179      0.1986
    110  NE2       18.0140   52.5810   21.3190 N.ar  179  HIS179     -0.2212
    111  N         19.7120   48.0230   19.7760 N.3   182  ASN182     -0.1240
    112  CA        18.5010   47.9880   18.9940 C.3   182  ASN182      0.1653
    113  C         18.6690   48.4100   17.5190 C.2   182  ASN182      0.2266
    114  O         17.7320   48.8850   16.8900 O.2   182  ASN182     -0.2867
    115  CB        17.3590   48.7390   19.6710 C.3   182  ASN182      0.1155
    116  CG        17.0810   48.2900   21.1100 C.2   182  ASN182      0.2627
    117  OD1       17.4960   47.2170   21.5360 O.2   182  ASN182     -0.2716
    118  ND2       16.3720   49.1350   21.8700 N.am  182  ASN182     -0.0877
    119  N         20.3430   50.7560   16.0470 N.3   184  CYS184     -0.1235
    120  CA        20.4440   52.1610   15.7060 C.3   184  CYS184      0.1677
    121  C         21.8990   52.4680   15.2600 C.2   184  CYS184      0.2270
    122  O         22.7040   51.5180   15.0920 O.2   184  CYS184     -0.2867
    123  CB        19.9810   52.9940   16.8750 C.3   184  CYS184      0.0956
    124  SG        21.0560   53.1210   18.2760 S.3   184  CYS184     -0.0801
    125  N         21.3680   40.4080   19.4950 N.3   236  LEU236     -0.1245
    126  CA        20.0200   40.8000   19.0660 C.3   236  LEU236      0.1561
    127  C         20.0240   41.1590   17.5840 C.2   236  LEU236      0.2260
    128  O         20.9010   41.8890   17.1040 O.2   236  LEU236     -0.2867
    129  CB        19.5140   41.9960   19.8910 C.3   236  LEU236      0.0270
    130  CG        18.1440   42.6110   19.5980 C.3   236  LEU236      0.0019
    131  CD1       16.9590   41.8080   20.0600 C.3   236  LEU236      0.0001
    132  CD2       18.0430   44.0600   20.1970 C.3   236  LEU236      0.0001
    133  N         17.6540   42.9710   15.0070 N.3   238  LEU238     -0.1231
    134  CA        16.5060   43.8290   14.8800 C.3   238  LEU238      0.1693
    135  C         16.7930   44.6920   13.6660 C.2   238  LEU238      0.2592
    136  O         17.9640   44.9630   13.3670 O.2   238  LEU238     -0.2718
    137  CB        16.3960   44.7200   16.1290 C.3   238  LEU238      0.0284
    138  CG        15.0560   45.0500   16.7290 C.3   238  LEU238      0.0019
    139  CD1       14.2470   43.8190   17.1640 C.3   238  LEU238      0.0001
    140  CD2       15.2360   46.0360   17.9130 C.3   238  LEU238      0.0001
    141  N         15.7270   45.1150   12.9970 N.am  239  PHE239     -0.1976
    142  CA        15.8010   46.0700   11.8920 C.3   239  PHE239      0.1639
    143  C         16.8480   45.6730   10.8570 C.2   239  PHE239      0.2290
    144  O         17.6580   46.4700   10.4000 O.2   239  PHE239     -0.2864
    145  CB        16.0710   47.4860   12.4310 C.3   239  PHE239      0.0560
    146  CG        15.0010   47.9910   13.3730 C.ar  239  PHE239     -0.0200
    147  CD1       13.7010   48.1840   12.9320 C.ar  239  PHE239     -0.0042
    148  CD2       15.2770   48.2070   14.7060 C.ar  239  PHE239     -0.0042
    149  CE1       12.7070   48.5690   13.8000 C.ar  239  PHE239     -0.0003
    150  CE2       14.2810   48.6360   15.5750 C.ar  239  PHE239     -0.0003
    151  CZ        12.9830   48.7880   15.1180 C.ar  239  PHE239     -0.0000
    152  N         20.3190   44.9490   26.6990 N.3   268  ASN268     -0.1240
    153  CA        18.9540   44.5920   26.4070 C.3   268  ASN268      0.1653
    154  C         19.0520   43.1860   25.8100 C.2   268  ASN268      0.2266
    155  O         19.7640   42.9850   24.8370 O.2   268  ASN268     -0.2867
    156  CB        18.2980   45.6400   25.4900 C.3   268  ASN268      0.1155
    157  CG        16.8410   45.3780   25.2380 C.2   268  ASN268      0.2627
    158  OD1       16.1510   44.8210   26.0850 O.2   268  ASN268     -0.2716
    159  ND2       16.3510   45.7840   24.0220 N.am  268  ASN268     -0.0877
    160  N          0.8180   52.4440   23.7180 N.3   342  PHE342     -0.1227
    161  CA         2.2600   52.6370   23.9370 C.3   342  PHE342      0.1736
    162  C          2.7670   53.8730   23.2050 C.2   342  PHE342      0.2595
    163  O          3.5810   54.6610   23.7560 O.2   342  PHE342     -0.2718
    164  CB         3.0800   51.4250   23.4850 C.3   342  PHE342      0.0547
    165  CG         3.0040   50.2200   24.4160 C.ar  342  PHE342     -0.0202
    166  CD1        2.3080   50.2530   25.6320 C.ar  342  PHE342     -0.0042
    167  CD2        3.6890   49.0650   24.0870 C.ar  342  PHE342     -0.0042
    168  CE1        2.2950   49.1300   26.4730 C.ar  342  PHE342     -0.0003
    169  CE2        3.6670   47.9490   24.9250 C.ar  342  PHE342     -0.0003
    170  CZ         2.9750   47.9970   26.1070 C.ar  342  PHE342     -0.0000
    171  N          2.2830   54.0710   21.9750 N.am  343  TYR343     -0.1962
    172  CA         2.8110   55.1420   21.1220 C.3   343  TYR343      0.1771
    173  C          1.7480   56.1390   20.6820 C.2   343  TYR343      0.2620
    174  O          0.6580   55.7540   20.2540 O.2   343  TYR343     -0.2715
    175  CB         3.4390   54.5390   19.8650 C.3   343  TYR343      0.0574
    176  CG         4.4260   53.4290   20.1270 C.ar  343  TYR343     -0.0198
    177  CD1        5.6260   53.6860   20.7740 C.ar  343  TYR343     -0.0009
    178  CD2        4.1680   52.1230   19.7030 C.ar  343  TYR343     -0.0009
    179  CE1        6.5240   52.7180   20.9990 C.ar  343  TYR343      0.0417
    180  CE2        5.0600   51.1570   19.9200 C.ar  343  TYR343      0.0417
    181  CZ         6.2390   51.4280   20.5700 C.ar  343  TYR343      0.1957
    182  OH         7.1650   50.4440   20.8090 O.3   343  TYR343     -0.2866
    183  N          2.0930   57.4240   20.7260 N.am  344  GLY344     -0.1954
    184  CA         1.1920   58.4500   20.2400 C.3   344  GLY344      0.1869
    185  C          0.1090   58.8230   21.2220 C.2   344  GLY344      0.2309
    186  O         -0.0230   58.2330   22.3020 O.2   344  GLY344     -0.2863
@<TRIPOS>BOND
     1    81    79   ar
     2    96    95    2
     3    79    78    1
     4    79    80   ar
     5    78    77    1
     6    95    94    1
     7    74    77    1
     8    74    73    1
     9    74    75    1
    10    94    93    1
    11    94    97    1
    12    75    76    2
    13    97    98    1
    14   144   143    2
    15   143   142    1
    16    84    83    1
    17    84    85    2
    18    82    83    1
    19    83    86    1
    20    36    35    1
    21    98    99    1
    22    98   100    1
    23   142   145    1
    24   142   141    1
    25   145   146    1
    26    49    48    1
    27    37    35    1
    28   147   146   ar
    29   147   149   ar
    30   141   135   am
    31    86    87    1
    32    35    32    1
    33    88    87   ar
    34    88    90   ar
    35    87    89   ar
    36    90    92   ar
    37   136   135    2
    38   146   148   ar
    39    19    20    1
    40    89    91   ar
    41    92    91   ar
    42   135   134    1
    43    31    32    1
    44    31    21   am
    45   149   151   ar
    46    48    46   ar
    47    48    47   ar
    48    30    29    1
    49    20    21    1
    50    20    23    1
    51    32    33    1
    52    46    44   ar
    53    29    27   ar
    54    29    28   ar
    55    27    25   ar
    56    21    22    2
    57    25    24   ar
    58    28    26   ar
    59    47    45   ar
    60   148   150   ar
    61    26    24   ar
    62   134   133    1
    63   134   137    1
    64    24    23    1
    65   122   121    2
    66   151   150   ar
    67   121   120    1
    68    44    43   ar
    69    33    34    2
    70    33    38   am
    71   120   119    1
    72   120   123    1
    73    45    43   ar
    74    38    39    1
    75   137   138    1
    76    43    42    1
    77   138   139    1
    78   138   140    1
    79   123   124    1
    80   114   113    2
    81   128   127    2
    82    39    42    1
    83    39    40    1
    84   113   112    1
    85   127   126    1
    86    70    72   ar
    87    70    68   ar
    88    62    61    2
    89    72    71   ar
    90    67    68   ar
    91    67    65   ar
    92    68    66   ar
    93    61    60    1
    94    40    41    2
    95    71    69   ar
    96    65    64   ar
    97    66    69   ar
    98    66    64   ar
    99   112   115    1
   100   112   111    1
   101   126   125    1
   102   126   129    1
   103    64    63    1
   104    13    12    1
   105   130   129    1
   106   130   131    1
   107   130   132    1
   108   115   116    1
   109   178   180   ar
   110   178   176   ar
   111    12     9    1
   112    60    63    1
   113    60    59    1
   114   175   176    1
   115   175   172    1
   116   180   181   ar
   117   176   177   ar
   118   184   183    1
   119   184   185    1
   120   174   173    2
   121   104   103    2
   122    11    10    2
   123   181   182    1
   124   181   179   ar
   125   173   183   am
   126   173   172    1
   127     7     5    1
   128   177   179   ar
   129     9    10    1
   130     9     8    1
   131   116   117    2
   132   116   118   am
   133   172   171    1
   134   185   186    2
   135   110   108   ar
   136   110   109   ar
   137   108   106   ar
   138   103   102    1
   139   109   107   ar
   140     6     5    1
   141   106   107   ar
   142   106   105    1
   143     5     2    1
   144    18    15    1
   145   171   162   am
   146   105   102    1
   147    17    16    2
   148    16    15    1
   149   102   101    1
   150    15    14    1
   151   162   163    2
   152   162   161    1
   153     2     3    1
   154     2     1    1
   155     4     3    2
   156   164   161    1
   157   164   165    1
   158   160   161    1
   159   159   157   am
   160   167   165   ar
   161   167   169   ar
   162    57    56    2
   163    53    52    2
   164   165   166   ar
   165    52    51    1
   166    56    58   am
   167    56    55    1
   168   155   154    2
   169   169   170   ar
   170    55    54    1
   171   157   156    1
   172   157   158    2
   173   156   153    1
   174   166   168   ar
   175   154   153    1
   176    54    51    1
   177   170   168   ar
   178    51    50    1
   179   153   152    1
