@<TRIPOS>MOLECULE
tmp/2r1dH00.pdb
 85 82 0 0 0
SMALL
GASTEIGER

@<TRIPOS>ATOM
      1  N         58.3070   67.1430  115.5000 N.3     6  TYR6       -0.1241
      2  CA        59.4500   67.3540  114.6630 C.3     6  TYR6        0.1605
      3  C         59.5730   68.8230  114.3160 C.2     6  TYR6        0.2264
      4  O         58.5870   69.4850  114.0110 O.2     6  TYR6       -0.2867
      5  CB        59.3530   66.5280  113.3840 C.3     6  TYR6        0.0534
      6  CG        59.6530   65.0560  113.5400 C.ar    6  TYR6       -0.0201
      7  CD1       58.6330   64.1270  113.7700 C.ar    6  TYR6       -0.0009
      8  CD2       60.9550   64.5810  113.4140 C.ar    6  TYR6       -0.0009
      9  CE1       58.9210   62.7450  113.8860 C.ar    6  TYR6        0.0417
     10  CE2       61.2600   63.2100  113.5400 C.ar    6  TYR6        0.0417
     11  CZ        60.2480   62.2990  113.7780 C.ar    6  TYR6        0.1957
     12  OH        60.5680   60.9600  113.9030 O.3     6  TYR6       -0.2866
     13  N         57.3790   57.5290  112.4210 N.3   161  ALA161     -0.1231
     14  CA        58.7090   57.9890  112.0590 C.3   161  ALA161      0.1694
     15  C         59.6330   57.7870  113.2480 C.2   161  ALA161      0.2592
     16  O         60.7290   57.2430  113.0960 O.2   161  ALA161     -0.2718
     17  CB        58.6920   59.4290  111.6270 C.3   161  ALA161      0.0304
     18  N         59.1630   58.1780  114.4320 N.am  162  ALA162     -0.1966
     19  CA        59.9540   58.0560  115.6620 C.3   162  ALA162      0.1728
     20  C         60.1330   56.6070  116.1640 C.2   162  ALA162      0.2616
     21  O         61.0910   56.3130  116.8630 O.2   162  ALA162     -0.2715
     22  CB        59.3860   58.9640  116.7710 C.3   162  ALA162      0.0334
     23  N         59.2000   55.7180  115.8290 N.am  163  GLU163     -0.1963
     24  CA        59.3360   54.2930  116.1520 C.3   163  GLU163      0.1733
     25  C         60.2600   53.6210  115.1450 C.2   163  GLU163      0.2616
     26  O         60.6340   52.4690  115.3370 O.2   163  GLU163     -0.2715
     27  CB        57.9740   53.5640  116.1620 C.3   163  GLU163      0.0429
     28  CG        57.1580   53.6570  117.4530 C.3   163  GLU163      0.1163
     29  CD        55.6280   53.5180  117.2320 C.2   163  GLU163      0.3649
     30  OE1       55.1280   53.4460  116.0570 O.co2 163  GLU163     -0.2457
     31  OE2       54.8930   53.4800  118.2550 O.co2 163  GLU163     -0.2457
     32  N         60.6070   54.3150  114.0610 N.am  164  ASN164     -0.1972
     33  CA        61.5890   53.7930  113.1080 C.3   164  ASN164      0.1688
     34  C         61.0090   52.7650  112.1250 C.2   164  ASN164      0.2292
     35  O         61.7430   52.0230  111.4880 O.2   164  ASN164     -0.2864
     36  CB        62.7840   53.2150  113.8890 C.3   164  ASN164      0.1181
     37  CG        64.0460   53.0680  113.0600 C.2   164  ASN164      0.2629
     38  OD1       64.1760   53.6220  111.9770 O.2   164  ASN164     -0.2716
     39  ND2       64.9930   52.3130  113.5910 N.am  164  ASN164     -0.0877
     40  N         63.4540   59.6880  106.1700 N.3   170  ILE170     -0.1245
     41  CA        63.5630   61.0250  106.6880 C.3   170  ILE170      0.1561
     42  C         64.7870   61.6600  106.0710 C.2   170  ILE170      0.2260
     43  O         65.8770   61.1520  106.2800 O.2   170  ILE170     -0.2867
     44  CB        63.7100   60.9640  108.2290 C.3   170  ILE170      0.0252
     45  CG1       62.5130   60.2240  108.8720 C.3   170  ILE170      0.0019
     46  CG2       63.9010   62.3530  108.7780 C.3   170  ILE170      0.0019
     47  CD1       62.2750   60.4820  110.3950 C.3   170  ILE170      0.0001
     48  N         66.9080   65.6280  105.0240 N.3   172  GLY172     -0.1210
     49  CA        66.9400   67.0890  105.1620 C.3   172  GLY172      0.1956
     50  C         67.0560   67.5500  106.5920 C.2   172  GLY172      0.2612
     51  O         67.4570   66.7800  107.4570 O.2   172  GLY172     -0.2717
     52  N         66.6780   68.8040  106.8330 N.am  173  ASN173     -0.1960
     53  CA        66.8210   69.4740  108.1440 C.3   173  ASN173      0.1819
     54  C         65.6240   69.1970  109.0630 C.2   173  ASN173      0.2621
     55  O         64.7890   70.0820  109.2860 O.2   173  ASN173     -0.2715
     56  CB        67.0210   70.9970  107.9470 C.3   173  ASN173      0.1195
     57  CG        67.9290   71.6250  109.0110 C.2   173  ASN173      0.2630
     58  OD1       68.1100   71.0530  110.0790 O.2   173  ASN173     -0.2716
     59  ND2       68.4950   72.8140  108.7210 N.am  173  ASN173     -0.0877
     60  N         65.5330   67.9730  109.5890 N.am  174  VAL174     -0.1963
     61  CA        64.3620   67.5560  110.4020 C.3   174  VAL174      0.1727
     62  C         64.8100   66.8270  111.6990 C.2   174  VAL174      0.2616
     63  O         65.8080   66.0930  111.6840 O.2   174  VAL174     -0.2715
     64  CB        63.3130   66.7780  109.5060 C.3   174  VAL174      0.0290
     65  CG1       63.9370   65.5650  108.8400 C.3   174  VAL174      0.0023
     66  CG2       62.0460   66.4120  110.2590 C.3   174  VAL174      0.0023
     67  N         64.1180   67.0750  112.8180 N.am  175  ARG175     -0.1963
     68  CA        64.5860   66.6470  114.1450 C.3   175  ARG175      0.1729
     69  C         63.4990   66.3090  115.1960 C.2   175  ARG175      0.2616
     70  O         62.4350   66.9080  115.2020 O.2   175  ARG175     -0.2715
     71  CB        65.5030   67.7360  114.7100 C.3   175  ARG175      0.0348
     72  CG        66.3230   67.3090  115.9130 C.3   175  ARG175      0.0492
     73  CD        67.3860   68.3050  116.3290 C.3   175  ARG175      0.2205
     74  NE        66.9550   69.1930  117.4170 N.pl3 175  ARG175     -0.0865
     75  CZ        66.5070   70.4350  117.2430 C.cat 175  ARG175      0.5346
     76  NH1       66.4180   70.9630  116.0180 N.pl3 175  ARG175      0.1354
     77  NH2       66.1440   71.1550  118.2980 N.pl3 175  ARG175      0.1354
     78  N         63.8220   65.3490  116.0800 N.am  176  LEU176     -0.1977
     79  CA        63.1590   65.0300  117.4120 C.3   176  LEU176      0.1596
     80  C         62.2060   63.7980  117.3820 C.2   176  LEU176      0.2287
     81  O         62.6340   62.6400  117.4230 O.2   176  LEU176     -0.2864
     82  CB        62.5710   66.2890  118.1550 C.3   176  LEU176      0.0297
     83  CG        61.9560   66.3840  119.5810 C.3   176  LEU176      0.0022
     84  CD1       62.9100   65.9080  120.6890 C.3   176  LEU176      0.0001
     85  CD2       61.4750   67.8270  119.9250 C.3   176  LEU176      0.0001
@<TRIPOS>BOND
     1    48    49    1
     2    49    50    1
     3    42    43    2
     4    42    41    1
     5    40    41    1
     6    50    52   am
     7    50    51    2
     8    41    44    1
     9    52    53    1
    10    56    53    1
    11    56    57    1
    12    53    54    1
    13    44    46    1
    14    44    45    1
    15    59    57   am
    16    65    64    1
    17    45    47    1
    18    57    58    2
    19    54    55    2
    20    54    60   am
    21    64    66    1
    22    64    61    1
    23    60    61    1
    24    61    62    1
    25    35    34    2
    26    17    14    1
    27    63    62    2
    28    62    67   am
    29    38    37    2
    30    14    13    1
    31    14    15    1
    32    34    33    1
    33    67    68    1
    34    37    39   am
    35    37    36    1
    36    16    15    2
    37    33    36    1
    38    33    32    1
    39    15    18   am
    40     5     6    1
    41     5     2    1
    42     8    10   ar
    43     8     6   ar
    44    10    11   ar
    45     6     7   ar
    46     7     9   ar
    47    11     9   ar
    48    11    12    1
    49     4     3    2
    50    32    25   am
    51    68    71    1
    52    68    69    1
    53     3     2    1
    54    18    19    1
    55     2     1    1
    56    71    72    1
    57    25    26    2
    58    25    24    1
    59    69    70    2
    60    69    78   am
    61    19    20    1
    62    19    22    1
    63    23    24    1
    64    23    20   am
    65    72    73    1
    66    76    75    1
    67    30    29   ar
    68    78    79    1
    69    24    27    1
    70    27    28    1
    71    20    21    2
    72    73    74    1
    73    29    28    1
    74    29    31   ar
    75    75    74    2
    76    75    77    1
    77    80    79    1
    78    80    81    2
    79    79    82    1
    80    82    83    1
    81    83    85    1
    82    83    84    1
