@<TRIPOS>MOLECULE
tmp/2r1hC00.pdb
 207 200 0 0 0
SMALL
GASTEIGER

@<TRIPOS>ATOM
      1  N          7.9780   25.4350   11.3990 N.3    32  MET32      -0.1245
      2  CA         7.5130   24.1970   11.9870 C.3    32  MET32       0.1570
      3  C          6.4400   23.5270   11.1090 C.2    32  MET32       0.2261
      4  O          6.5410   22.3370   10.7430 O.2    32  MET32      -0.2867
      5  CB         6.8830   24.4520   13.3620 C.3    32  MET32       0.0387
      6  CG         6.5630   23.1200   14.0610 C.3    32  MET32       0.0595
      7  SD         5.9110   23.3530   15.7000 S.3    32  MET32      -0.1393
      8  CE         4.2130   23.8640   15.3170 C.3    32  MET32       0.0692
      9  N          3.3880   18.3050   12.2970 N.3    39  THR39      -0.1218
     10  CA         2.8160   19.2240   13.2800 C.3    39  THR39       0.1862
     11  C          1.4880   19.8680   12.8320 C.2    39  THR39       0.2287
     12  O          0.7270   20.3470   13.6740 O.2    39  THR39      -0.2866
     13  CB         3.7960   20.3370   13.6860 C.3    39  THR39       0.1770
     14  OG1        4.0740   21.1960   12.5740 O.3    39  THR39      -0.2211
     15  CG2        5.1310   19.7160   14.2500 C.3    39  THR39       0.0375
     16  N         -2.3290   19.3490   14.3230 N.3    42  TYR42      -0.1227
     17  CA        -2.9840   20.0740   15.4320 C.3    42  TYR42       0.1736
     18  C         -3.6670   21.3770   15.0220 C.2    42  TYR42       0.2595
     19  O         -4.2950   22.0250   15.8350 O.2    42  TYR42      -0.2718
     20  CB        -1.9990   20.3750   16.5790 C.3    42  TYR42       0.0548
     21  CG        -1.3940   19.1260   17.1270 C.ar   42  TYR42      -0.0200
     22  CD1       -2.1170   18.3440   18.0270 C.ar   42  TYR42      -0.0009
     23  CD2       -0.1170   18.6890   16.6980 C.ar   42  TYR42      -0.0009
     24  CE1       -1.5900   17.1580   18.5310 C.ar   42  TYR42       0.0417
     25  CE2        0.4190   17.4900   17.1750 C.ar   42  TYR42       0.0417
     26  CZ        -0.3270   16.7340   18.1140 C.ar   42  TYR42       0.1957
     27  OH         0.1390   15.5470   18.6340 O.3    42  TYR42      -0.2866
     28  N         -3.5310   21.7580   13.7680 N.am   43  PHE43      -0.1976
     29  CA        -3.9210   23.0930   13.3770 C.3    43  PHE43       0.1639
     30  C         -4.8700   23.0480   12.1900 C.2    43  PHE43       0.2290
     31  O         -5.0250   24.0310   11.4840 O.2    43  PHE43      -0.2864
     32  CB        -2.6550   23.8890   13.0550 C.3    43  PHE43       0.0560
     33  CG        -1.6940   24.0290   14.2260 C.ar   43  PHE43      -0.0200
     34  CD1       -1.9000   25.0040   15.1880 C.ar   43  PHE43      -0.0042
     35  CD2       -0.5800   23.1990   14.3480 C.ar   43  PHE43      -0.0042
     36  CE1       -1.0140   25.1610   16.2640 C.ar   43  PHE43      -0.0003
     37  CE2        0.3080   23.3380   15.4090 C.ar   43  PHE43      -0.0003
     38  CZ         0.0860   24.3150   16.3760 C.ar   43  PHE43      -0.0000
     39  N         -7.9960   23.1690   12.2540 N.3    45  HIS45      -0.1226
     40  CA        -9.1640   24.0110   12.5300 C.3    45  HIS45       0.1752
     41  C         -8.9540   25.4870   12.1310 C.2    45  HIS45       0.2596
     42  O         -9.9230   26.2800   12.0480 O.2    45  HIS45      -0.2718
     43  CB        -9.5960   23.8820   14.0000 C.3    45  HIS45       0.0759
     44  CG        -8.5670   24.3310   14.9900 C.ar   45  HIS45       0.0818
     45  ND1       -7.3240   23.7470   15.0970 N.ar   45  HIS45      -0.2268
     46  CD2       -8.6110   25.3000   15.9370 C.ar   45  HIS45       0.1154
     47  CE1       -6.6380   24.3460   16.0560 C.ar   45  HIS45       0.1986
     48  NE2       -7.3970   25.2950   16.5810 N.ar   45  HIS45      -0.2212
     49  N         -7.7080   25.8440   11.8460 N.am   46  TRP46      -0.1976
     50  CA        -7.3820   27.1920   11.3880 C.3    46  TRP46       0.1640
     51  C         -7.7450   27.3620    9.9230 C.2    46  TRP46       0.2290
     52  O         -7.7420   26.3950    9.1570 O.2    46  TRP46      -0.2864
     53  CB        -5.8810   27.4780   11.4970 C.3    46  TRP46       0.0576
     54  CG        -5.3460   27.6660   12.8630 C.ar   46  TRP46       0.0006
     55  CD1       -6.0350   27.6900   14.0350 C.ar   46  TRP46       0.0946
     56  CD2       -3.9740   27.8990   13.1920 C.ar   46  TRP46       0.0152
     57  NE1       -5.1660   27.8940   15.0910 N.ar   46  TRP46      -0.2442
     58  CE2       -3.8960   28.0400   14.5960 C.ar   46  TRP46       0.0810
     59  CE3       -2.8060   28.0010   12.4340 C.ar   46  TRP46       0.0012
     60  CZ2       -2.6950   28.2570   15.2590 C.ar   46  TRP46       0.0191
     61  CZ3       -1.6020   28.2100   13.0900 C.ar   46  TRP46       0.0001
     62  CH2       -1.5530   28.3450   14.4900 C.ar   46  TRP46       0.0015
     63  N         -0.8980   33.3900   16.0110 N.3    59  HIS59      -0.1241
     64  CA        -0.4310   32.3950   16.9440 C.3    59  HIS59       0.1621
     65  C          1.0700   32.4540   17.1630 C.2    59  HIS59       0.2264
     66  O          1.5320   32.1800   18.2710 O.2    59  HIS59      -0.2867
     67  CB        -0.8950   31.0020   16.5730 C.3    59  HIS59       0.0745
     68  CG        -0.6860   30.0120   17.6720 C.ar   59  HIS59       0.0817
     69  ND1       -1.3090   30.1180   18.9010 N.ar   59  HIS59      -0.2268
     70  CD2        0.1150   28.9210   17.7470 C.ar   59  HIS59       0.1154
     71  CE1       -0.9120   29.1310   19.6850 C.ar   59  HIS59       0.1986
     72  NE2       -0.0610   28.3810   19.0070 N.ar   59  HIS59      -0.2212
     73  N          1.2980   34.7160   19.9930 N.3    62  THR62      -0.1203
     74  CA         0.9290   34.0200   21.2340 C.3    62  THR62       0.1994
     75  C          2.0990   33.1900   21.7560 C.2    62  THR62       0.2617
     76  O          2.4050   33.2410   22.9520 O.2    62  THR62      -0.2717
     77  CB        -0.2480   33.1220   21.0030 C.3    62  THR62       0.1784
     78  OG1       -1.3400   33.9310   20.5680 O.3    62  THR62      -0.2211
     79  CG2       -0.5640   32.3120   22.2480 C.3    62  THR62       0.0376
     80  N          2.7480   32.4230   20.8770 N.am   63  ILE63      -0.1979
     81  CA         3.9060   31.6120   21.2640 C.3    63  ILE63       0.1595
     82  C          5.0650   32.4480   21.7730 C.2    63  ILE63       0.2287
     83  O          5.5350   32.2410   22.8970 O.2    63  ILE63      -0.2864
     84  CB         4.3990   30.6890   20.1090 C.3    63  ILE63       0.0276
     85  CG1        3.3080   29.6520   19.8120 C.3    63  ILE63       0.0022
     86  CG2        5.7120   30.0050   20.4900 C.3    63  ILE63       0.0022
     87  CD1        3.6100   28.8280   18.5190 C.3    63  ILE63       0.0001
     88  N          4.7740   34.2490   25.0610 N.3    66  GLN66      -0.1231
     89  CA         4.9310   33.3160   26.1660 C.3    66  GLN66       0.1698
     90  C          6.4030   32.9890   26.3880 C.2    66  GLN66       0.2592
     91  O          6.8630   32.9840   27.5160 O.2    66  GLN66      -0.2718
     92  CB         4.1300   32.0360   25.9220 C.3    66  GLN66       0.0381
     93  CG         4.2160   30.9970   27.0700 C.3    66  GLN66       0.0905
     94  CD         3.5670   31.5410   28.3470 C.2    66  GLN66       0.2608
     95  OE1        2.4000   31.9260   28.3370 O.2    66  GLN66      -0.2717
     96  NE2        4.3230   31.5950   29.4280 N.am   66  GLN66      -0.0878
     97  N          7.1460   32.7150   25.3180 N.am   67  ILE67      -0.1980
     98  CA         8.5600   32.4450   25.4510 C.3    67  ILE67       0.1595
     99  C          9.2710   33.6850   26.0020 C.2    67  ILE67       0.2287
    100  O         10.1330   33.5660   26.8730 O.2    67  ILE67      -0.2864
    101  CB         9.1980   31.9630   24.1080 C.3    67  ILE67       0.0276
    102  CG1        8.5140   30.6650   23.6390 C.3    67  ILE67       0.0022
    103  CG2       10.6970   31.7370   24.2740 C.3    67  ILE67       0.0022
    104  CD1        8.9640   30.1590   22.1980 C.3    67  ILE67       0.0001
    105  N          0.0950   25.9940   31.4930 N.3    84  LEU84      -0.1245
    106  CA         0.2220   25.8040   30.0700 C.3    84  LEU84       0.1561
    107  C          0.5370   24.3520   29.6730 C.2    84  LEU84       0.2260
    108  O          0.1320   23.8780   28.6050 O.2    84  LEU84      -0.2867
    109  CB         1.2920   26.7520   29.5300 C.3    84  LEU84       0.0270
    110  CG         1.2230   26.9870   28.0300 C.3    84  LEU84       0.0019
    111  CD1       -0.1820   27.3830   27.5960 C.3    84  LEU84       0.0001
    112  CD2        2.2200   28.0550   27.6530 C.3    84  LEU84       0.0001
    113  N         -2.7900   22.6540   29.9650 N.3    87  LEU87      -0.1231
    114  CA        -3.5910   23.0430   28.8130 C.3    87  LEU87       0.1693
    115  C         -3.2000   22.1980   27.5710 C.2    87  LEU87       0.2592
    116  O         -4.0630   21.6340   26.8930 O.2    87  LEU87      -0.2718
    117  CB        -3.3940   24.5390   28.5740 C.3    87  LEU87       0.0284
    118  CG        -4.2830   25.4220   27.7180 C.3    87  LEU87       0.0019
    119  CD1       -3.9730   26.8750   28.0560 C.3    87  LEU87       0.0001
    120  CD2       -4.0390   25.2010   26.2700 C.3    87  LEU87       0.0001
    121  N         -1.9010   22.1070   27.2880 N.am   88  HIS88      -0.1976
    122  CA        -1.4130   21.3530   26.1320 C.3    88  HIS88       0.1656
    123  C         -1.6810   19.8670   26.3070 C.2    88  HIS88       0.2291
    124  O         -2.0210   19.1840   25.3670 O.2    88  HIS88      -0.2864
    125  CB         0.0860   21.5970   25.8890 C.3    88  HIS88       0.0771
    126  CG         0.3660   22.8740   25.1610 C.ar   88  HIS88       0.0820
    127  ND1        0.3930   24.0950   25.7980 N.ar   88  HIS88      -0.2267
    128  CD2        0.5860   23.1280   23.8430 C.ar   88  HIS88       0.1154
    129  CE1        0.6580   25.0450   24.9090 C.ar   88  HIS88       0.1986
    130  NE2        0.7770   24.4810   23.7150 N.ar   88  HIS88      -0.2212
    131  N         -6.4660   19.7790   27.2840 N.3    91  LYS91      -0.1231
    132  CA        -7.3200   20.4230   26.2880 C.3    91  LYS91       0.1693
    133  C         -6.8890   20.1100   24.8690 C.2    91  LYS91       0.2591
    134  O         -7.6870   19.6700   24.0460 O.2    91  LYS91      -0.2718
    135  CB        -7.3300   21.9370   26.4690 C.3    91  LYS91       0.0285
    136  CG        -8.3080   22.6010   25.5020 C.3    91  LYS91       0.0035
    137  CD        -7.9750   24.0620   25.1440 C.3    91  LYS91       0.0206
    138  CE        -8.6890   24.4530   23.8280 C.3    91  LYS91       0.1093
    139  NZ       -10.0900   23.8570   23.6720 N.3    91  LYS91      -0.1314
    140  N         -5.6130   20.3170   24.5950 N.am   92  LEU92      -0.1980
    141  CA        -5.1040   20.3200   23.2330 C.3    92  LEU92       0.1596
    142  C         -4.6360   18.9330   22.8210 C.2    92  LEU92       0.2287
    143  O         -4.6100   18.6130   21.6360 O.2    92  LEU92      -0.2864
    144  CB        -3.9330   21.2910   23.1370 C.3    92  LEU92       0.0297
    145  CG        -4.3020   22.7390   23.4410 C.3    92  LEU92       0.0022
    146  CD1       -3.0970   23.6060   23.4120 C.3    92  LEU92       0.0001
    147  CD2       -5.3520   23.2210   22.4530 C.3    92  LEU92       0.0001
    148  N         -1.6080   17.5570   22.8370 N.3    94  VAL94      -0.1245
    149  CA        -0.4680   17.6900   21.9370 C.3    94  VAL94       0.1561
    150  C          0.6300   16.6830   22.3150 C.2    94  VAL94       0.2260
    151  O          1.0720   16.6290   23.4630 O.2    94  VAL94      -0.2867
    152  CB         0.0910   19.1350   21.9650 C.3    94  VAL94       0.0252
    153  CG1        1.4340   19.1940   21.2500 C.3    94  VAL94       0.0019
    154  CG2       -0.9010   20.0910   21.3350 C.3    94  VAL94       0.0019
    155  N          6.5990   17.1480   20.0310 N.3    98  ASN98      -0.1225
    156  CA         6.5820   18.2710   19.0940 C.3    98  ASN98       0.1785
    157  C          7.2410   19.5370   19.6420 C.2    98  ASN98       0.2597
    158  O          7.7000   20.3940   18.8650 O.2    98  ASN98      -0.2718
    159  CB         5.1490   18.5650   18.6840 C.3    98  ASN98       0.1169
    160  CG         4.5880   17.4830   17.8210 C.2    98  ASN98       0.2627
    161  OD1        4.9320   17.4050   16.6520 O.2    98  ASN98      -0.2716
    162  ND2        3.7880   16.6200   18.3830 N.am   98  ASN98      -0.0877
    163  N          7.3220   19.6360   20.9670 N.am   99  PHE99      -0.1976
    164  CA         7.8700   20.8490   21.5890 C.3    99  PHE99       0.1639
    165  C          9.3080   21.0900   21.1190 C.2    99  PHE99       0.2290
    166  O          9.7000   22.2300   20.8230 O.2    99  PHE99      -0.2864
    167  CB         7.7960   20.8020   23.1330 C.3    99  PHE99       0.0560
    168  CG         6.3770   20.6580   23.6910 C.ar   99  PHE99      -0.0200
    169  CD1        5.2930   21.2470   23.0490 C.ar   99  PHE99      -0.0042
    170  CD2        6.1490   19.9510   24.8750 C.ar   99  PHE99      -0.0042
    171  CE1        3.9850   21.1120   23.5570 C.ar   99  PHE99      -0.0003
    172  CE2        4.8240   19.8200   25.3980 C.ar   99  PHE99      -0.0003
    173  CZ         3.7620   20.4100   24.7320 C.ar   99  PHE99      -0.0000
    174  N          9.3990   22.7760   17.6240 N.3   102  LEU102     -0.1231
    175  CA         9.2620   24.2170   17.6640 C.3   102  LEU102      0.1693
    176  C         10.5730   24.8830   18.0850 C.2   102  LEU102      0.2591
    177  O         10.9530   25.8570   17.4420 O.2   102  LEU102     -0.2718
    178  CB         8.1080   24.6700   18.5790 C.3   102  LEU102      0.0284
    179  CG         7.8350   26.1900   18.5010 C.3   102  LEU102      0.0019
    180  CD1        7.5830   26.6840   17.0780 C.3   102  LEU102      0.0001
    181  CD2        6.6550   26.5210   19.3230 C.3   102  LEU102      0.0001
    182  N         11.2580   24.3310   19.0990 N.am  103  ALA103     -0.1980
    183  CA        12.5680   24.8410   19.5750 C.3   103  ALA103      0.1597
    184  C         13.5770   24.9740   18.4430 C.2   103  ALA103      0.2287
    185  O         14.2540   25.9970   18.3330 O.2   103  ALA103     -0.2864
    186  CB        13.1610   23.9420   20.6920 C.3   103  ALA103      0.0319
    187  N         12.2890   24.5830   28.6510 N.3   133  LEU133     -0.1231
    188  CA        10.9530   25.0540   28.3360 C.3   133  LEU133      0.1693
    189  C         10.0630   23.8930   27.8370 C.2   133  LEU133      0.2591
    190  O          8.9490   23.7090   28.3330 O.2   133  LEU133     -0.2718
    191  CB        11.0510   26.2160   27.3320 C.3   133  LEU133      0.0284
    192  CG         9.9320   27.2710   27.3320 C.3   133  LEU133      0.0019
    193  CD1       10.3470   28.5420   26.5700 C.3   133  LEU133      0.0001
    194  CD2        8.6600   26.7200   26.7130 C.3   133  LEU133      0.0001
    195  N         10.5620   23.1240   26.8640 N.am  134  ALA134     -0.1980
    196  CA         9.8910   21.9110   26.3950 C.3   134  ALA134      0.1597
    197  C          9.5950   20.9080   27.5220 C.2   134  ALA134      0.2287
    198  O          8.4940   20.3490   27.5800 O.2   134  ALA134     -0.2864
    199  CB        10.7100   21.2510   25.2700 C.3   134  ALA134      0.0319
    200  N          6.7840   22.2570   29.7200 N.3   137  LEU137     -0.1245
    201  CA         5.4920   22.1060   29.0390 C.3   137  LEU137      0.1561
    202  C          4.9910   20.6680   29.0810 C.2   137  LEU137      0.2260
    203  O          3.7890   20.4130   29.0370 O.2   137  LEU137     -0.2867
    204  CB         5.5820   22.5560   27.5760 C.3   137  LEU137      0.0270
    205  CG         5.4930   24.0560   27.3690 C.3   137  LEU137      0.0019
    206  CD1        5.7420   24.3190   25.8860 C.3   137  LEU137      0.0001
    207  CD2        4.1300   24.6090   27.8060 C.3   137  LEU137      0.0001
@<TRIPOS>BOND
     1    52    51    2
     2    51    50    1
     3     4     3    2
     4     3     2    1
     5    50    53    1
     6    50    49    1
     7     1     2    1
     8    31    30    2
     9    53    54    1
    10    49    41   am
    11     2     5    1
    12    42    41    2
    13    41    40    1
    14    30    29    1
    15    39    40    1
    16     9    10    1
    17    59    61   ar
    18    59    56   ar
    19    40    43    1
    20    14    13    1
    21    11    10    1
    22    11    12    2
    23    54    56   ar
    24    54    55   ar
    25    32    29    1
    26    32    33    1
    27    61    62   ar
    28    56    58   ar
    29    10    13    1
    30     5     6    1
    31    29    28    1
    32    13    15    1
    33    28    18   am
    34    43    44    1
    35    55    57   ar
    36     6     7    1
    37    33    35   ar
    38    33    34   ar
    39    16    17    1
    40    35    37   ar
    41    62    60   ar
    42    58    57   ar
    43    58    60   ar
    44    44    45   ar
    45    44    46   ar
    46    18    17    1
    47    18    19    2
    48    45    47   ar
    49    34    36   ar
    50     8     7    1
    51    37    38   ar
    52    17    20    1
    53    46    48   ar
    54    63    64    1
    55    47    48   ar
    56    36    38   ar
    57    67    64    1
    58    67    68    1
    59    20    21    1
    60   161   160    2
    61    23    21   ar
    62    23    25   ar
    63    64    65    1
    64   180   179    1
    65    21    22   ar
    66    65    66    2
    67    25    26   ar
    68   177   176    2
    69   174   175    1
    70   175   176    1
    71   175   178    1
    72    68    70   ar
    73    68    69   ar
    74    70    72   ar
    75   160   162   am
    76   160   159    1
    77    22    24   ar
    78   176   182   am
    79    26    24   ar
    80    26    27    1
    81   185   184    2
    82   184   183    1
    83   179   178    1
    84   179   181    1
    85    87    85    1
    86   159   156    1
    87   158   157    2
    88    69    71   ar
    89    72    71   ar
    90   156   157    1
    91   156   155    1
    92   182   183    1
    93   183   186    1
    94   157   163   am
    95    85    84    1
    96    73    74    1
    97    84    86    1
    98    84    81    1
    99    78    77    1
   100   166   165    2
   101    80    81    1
   102    80    75   am
   103   163   164    1
   104    77    74    1
   105    77    79    1
   106   165   164    1
   107    74    75    1
   108   153   152    1
   109    81    82    1
   110   154   152    1
   111   164   167    1
   112   143   142    2
   113    75    76    2
   114    82    83    2
   115   149   152    1
   116   149   150    1
   117   149   148    1
   118   104   102    1
   119   150   151    2
   120   147   145    1
   121   142   141    1
   122   169   171   ar
   123   169   168   ar
   124   167   168    1
   125   144   141    1
   126   144   145    1
   127   141   140    1
   128   146   145    1
   129   171   173   ar
   130   102   101    1
   131   139   138    1
   132   168   170   ar
   133   130   128   ar
   134   130   129   ar
   135   138   137    1
   136   128   126   ar
   137   134   133    2
   138   101   103    1
   139   101    98    1
   140   140   133   am
   141   173   172   ar
   142   133   132    1
   143   170   172   ar
   144   129   127   ar
   145    88    89    1
   146   137   136    1
   147   126   127   ar
   148   126   125    1
   149   199   196    1
   150    97    98    1
   151    97    90   am
   152   124   123    2
   153    98    99    1
   154   136   135    1
   155   206   205    1
   156   125   122    1
   157    92    89    1
   158    92    93    1
   159    99   100    2
   160   122   123    1
   161   122   121    1
   162    89    90    1
   163   120   118    1
   164   132   135    1
   165   132   131    1
   166    90    91    2
   167   196   195    1
   168   196   197    1
   169   193   192    1
   170   194   192    1
   171   195   189   am
   172   116   115    2
   173    93    94    1
   174   121   115   am
   175   192   191    1
   176   191   188    1
   177   205   204    1
   178   205   207    1
   179   197   198    2
   180   115   114    1
   181   204   201    1
   182   111   110    1
   183   112   110    1
   184   118   119    1
   185   118   117    1
   186   189   190    2
   187   189   188    1
   188   110   109    1
   189   188   187    1
   190    95    94    2
   191    94    96   am
   192   117   114    1
   193   108   107    2
   194   114   113    1
   195   203   202    2
   196   201   202    1
   197   201   200    1
   198   109   106    1
   199   107   106    1
   200   106   105    1
