@<TRIPOS>MOLECULE
tmp/2r1pA00.pdb
 160 155 0 0 0
SMALL
GASTEIGER

@<TRIPOS>ATOM
      1  N         37.4450   22.0860   -8.0330 N.3    22  HIS22      -0.1241
      2  CA        36.1700   22.0340   -7.2660 C.3    22  HIS22       0.1621
      3  C         36.5030   22.3280   -5.8010 C.2    22  HIS22       0.2264
      4  O         36.9250   21.4100   -5.0520 O.2    22  HIS22      -0.2867
      5  CB        35.4640   20.6490   -7.4160 C.3    22  HIS22       0.0745
      6  CG        34.1100   20.5880   -6.7610 C.ar   22  HIS22       0.0817
      7  ND1       32.9520   20.2370   -7.4290 N.ar   22  HIS22      -0.2268
      8  CD2       33.7190   20.9860   -5.5240 C.ar   22  HIS22       0.1154
      9  CE1       31.9190   20.3240   -6.5920 C.ar   22  HIS22       0.1986
     10  NE2       32.3510   20.8300   -5.4510 N.ar   22  HIS22      -0.2212
     11  N         35.6660   25.4310   -2.3180 N.3    24  HIS24      -0.1241
     12  CA        34.8210   26.5450   -1.8550 C.3    24  HIS24       0.1621
     13  C         35.6460   27.3720   -0.8430 C.2    24  HIS24       0.2264
     14  O         36.3380   26.8070    0.0170 O.2    24  HIS24      -0.2867
     15  CB        33.6000   25.9850   -1.1100 C.3    24  HIS24       0.0745
     16  CG        32.7670   25.0520   -1.9210 C.ar   24  HIS24       0.0817
     17  ND1       31.7940   25.4910   -2.7930 N.ar   24  HIS24      -0.2268
     18  CD2       32.8200   23.6970   -2.0540 C.ar   24  HIS24       0.1154
     19  CE1       31.1980   24.4410   -3.3400 C.ar   24  HIS24       0.1986
     20  NE2       31.8520   23.3450   -2.9760 N.ar   24  HIS24      -0.2212
     21  N         31.0310   27.3490    2.2320 N.3    27  GLY27      -0.1225
     22  CA        29.7710   26.6890    1.8200 C.3    27  GLY27       0.1811
     23  C         28.6090   27.1420    2.7130 C.2    27  GLY27       0.2280
     24  O         28.5910   26.8910    3.9510 O.2    27  GLY27      -0.2866
     25  N         24.7380   28.4660   -2.7660 N.3    73  ILE73      -0.1245
     26  CA        25.8130   28.0890   -1.8350 C.3    73  ILE73       0.1561
     27  C         26.2940   29.3630   -1.1310 C.2    73  ILE73       0.2260
     28  O         27.1640   29.3580   -0.2420 O.2    73  ILE73      -0.2867
     29  CB        26.9740   27.3240   -2.5700 C.3    73  ILE73       0.0252
     30  CG1       26.4400   25.9850   -3.1770 C.3    73  ILE73       0.0019
     31  CG2       28.1660   27.0460   -1.5720 C.3    73  ILE73       0.0019
     32  CD1       27.4760   25.1870   -3.9660 C.3    73  ILE73       0.0001
     33  N         22.9570   25.0030   -7.3420 N.3    98  TRP98      -0.1227
     34  CA        23.2640   23.7590   -6.6410 C.3    98  TRP98       0.1737
     35  C         21.8610   23.2470   -6.1930 C.2    98  TRP98       0.2595
     36  O         20.8410   23.6110   -6.8000 O.2    98  TRP98      -0.2718
     37  CB        24.1170   24.1850   -5.4250 C.3    98  TRP98       0.0564
     38  CG        24.6410   23.1920   -4.4930 C.ar   98  TRP98       0.0003
     39  CD1       25.4760   22.1060   -4.7290 C.ar   98  TRP98       0.0946
     40  CD2       24.4480   23.2520   -3.0640 C.ar   98  TRP98       0.0152
     41  NE1       25.8270   21.5300   -3.4960 N.ar   98  TRP98      -0.2442
     42  CE2       25.1550   22.1790   -2.4880 C.ar   98  TRP98       0.0810
     43  CE3       23.6530   24.0670   -2.2450 C.ar   98  TRP98       0.0012
     44  CZ2       25.1690   21.9550   -1.0940 C.ar   98  TRP98       0.0191
     45  CZ3       23.6710   23.8710   -0.8670 C.ar   98  TRP98       0.0001
     46  CH2       24.4400   22.8270   -0.2980 C.ar   98  TRP98       0.0015
     47  N         21.7890   22.4500   -5.1120 N.am   99  PHE99      -0.1976
     48  CA        20.5200   21.7700   -4.8070 C.3    99  PHE99       0.1639
     49  C         19.7520   22.4540   -3.6550 C.2    99  PHE99       0.2290
     50  O         18.8700   21.8450   -3.0350 O.2    99  PHE99      -0.2864
     51  CB        20.7510   20.2450   -4.5910 C.3    99  PHE99       0.0560
     52  CG        21.7000   19.9190   -3.4740 C.ar   99  PHE99      -0.0200
     53  CD1       21.3420   20.0990   -2.1480 C.ar   99  PHE99      -0.0042
     54  CD2       22.9610   19.3670   -3.7540 C.ar   99  PHE99      -0.0042
     55  CE1       22.2800   19.8430   -1.0930 C.ar   99  PHE99      -0.0003
     56  CE2       23.8620   19.0120   -2.7390 C.ar   99  PHE99      -0.0003
     57  CZ        23.5320   19.2740   -1.3910 C.ar   99  PHE99      -0.0000
     58  N         27.5510   18.4880   -9.3730 N.3   167  HIS167     -0.1241
     59  CA        27.5100   17.7010   -8.1520 C.3   167  HIS167      0.1621
     60  C         26.6630   16.4710   -8.5520 C.2   167  HIS167      0.2264
     61  O         25.6480   16.6260   -9.2670 O.2   167  HIS167     -0.2867
     62  CB        26.6920   18.4450   -7.0770 C.3   167  HIS167      0.0745
     63  CG        26.4240   17.6130   -5.8490 C.ar  167  HIS167      0.0817
     64  ND1       27.0330   17.8730   -4.6440 N.ar  167  HIS167     -0.2268
     65  CD2       25.4780   16.6530   -5.6010 C.ar  167  HIS167      0.1154
     66  CE1       26.5890   17.0050   -3.7410 C.ar  167  HIS167      0.1986
     67  NE2       25.6020   16.3080   -4.2760 N.ar  167  HIS167     -0.2212
     68  N         32.2140   14.7710   -8.0550 N.3   196  HIS196     -0.1241
     69  CA        32.0410   13.7980   -6.9470 C.3   196  HIS196      0.1621
     70  C         32.1140   12.3750   -7.4640 C.2   196  HIS196      0.2264
     71  O         31.6560   11.4480   -6.8170 O.2   196  HIS196     -0.2867
     72  CB        30.7680   14.0200   -6.1210 C.3   196  HIS196      0.0745
     73  CG        30.6300   15.4340   -5.6700 C.ar  196  HIS196      0.0817
     74  ND1       31.7380   16.2350   -5.4290 N.ar  196  HIS196     -0.2268
     75  CD2       29.5420   16.1770   -5.3470 C.ar  196  HIS196      0.1154
     76  CE1       31.3180   17.4280   -5.0320 C.ar  196  HIS196      0.1986
     77  NE2       30.0100   17.3730   -4.8670 N.ar  196  HIS196     -0.2212
     78  N         36.8780   14.8360   -4.1680 N.3   220  ARG220     -0.1245
     79  CA        36.6910   14.7970   -2.7370 C.3   220  ARG220      0.1563
     80  C         37.8260   14.0100   -2.0490 C.2   220  ARG220      0.2260
     81  O         37.6140   13.3750   -1.0170 O.2   220  ARG220     -0.2867
     82  CB        35.3000   14.2180   -2.4110 C.3   220  ARG220      0.0307
     83  CG        34.2120   15.2490   -2.5630 C.3   220  ARG220      0.0489
     84  CD        32.8040   14.6610   -2.2120 C.3   220  ARG220      0.2205
     85  NE        31.8750   15.7610   -1.8570 N.pl3 220  ARG220     -0.0865
     86  CZ        30.5590   15.6330   -1.6930 C.cat 220  ARG220      0.5346
     87  NH1       29.9720   14.4460   -1.8260 N.pl3 220  ARG220      0.1354
     88  NH2       29.8120   16.6930   -1.3490 N.pl3 220  ARG220      0.1354
     89  N         38.1620   13.4300    1.8980 N.3   223  TYR223     -0.1241
     90  CA        36.9180   13.0730    2.6120 C.3   223  TYR223      0.1605
     91  C         36.9940   11.6330    3.1090 C.2   223  TYR223      0.2264
     92  O         36.8040   10.7020    2.3310 O.2   223  TYR223     -0.2867
     93  CB        35.6610   13.2220    1.7110 C.3   223  TYR223      0.0534
     94  CG        35.1130   14.6460    1.6130 C.ar  223  TYR223     -0.0201
     95  CD1       35.9500   15.7020    1.2760 C.ar  223  TYR223     -0.0009
     96  CD2       33.7080   14.8660    1.5670 C.ar  223  TYR223     -0.0009
     97  CE1       35.4730   17.0520    1.1750 C.ar  223  TYR223      0.0417
     98  CE2       33.1840   16.1790    1.4420 C.ar  223  TYR223      0.0417
     99  CZ        34.0820   17.2670    1.2890 C.ar  223  TYR223      0.1957
    100  OH        33.5760   18.5540    1.2100 O.3   223  TYR223     -0.2866
    101  N         28.4230   12.3170    5.4950 N.3   237  LEU237     -0.1231
    102  CA        28.9080   13.3020    4.5150 C.3   237  LEU237      0.1693
    103  C         30.2310   12.8320    3.9070 C.2   237  LEU237      0.2592
    104  O         30.4150   12.8910    2.6680 O.2   237  LEU237     -0.2718
    105  CB        29.0700   14.6890    5.1450 C.3   237  LEU237      0.0284
    106  CG        29.7550   15.6650    4.1720 C.3   237  LEU237      0.0019
    107  CD1       28.8560   15.8270    2.9150 C.3   237  LEU237      0.0001
    108  CD2       30.0850   16.9900    4.8210 C.3   237  LEU237      0.0001
    109  N         31.1040   12.2920    4.7720 N.am  238  PHE238     -0.1976
    110  CA        32.4670   11.8830    4.3630 C.3   238  PHE238      0.1639
    111  C         32.6640   10.4840    3.7910 C.2   238  PHE238      0.2290
    112  O         33.6070   10.2610    3.0500 O.2   238  PHE238     -0.2864
    113  CB        33.4360   12.0980    5.4980 C.3   238  PHE238      0.0560
    114  CG        33.4300   13.5060    5.9700 C.ar  238  PHE238     -0.0200
    115  CD1       33.1820   14.5210    5.0490 C.ar  238  PHE238     -0.0042
    116  CD2       33.4850   13.8110    7.3190 C.ar  238  PHE238     -0.0042
    117  CE1       33.0580   15.8350    5.4610 C.ar  238  PHE238     -0.0003
    118  CE2       33.4140   15.1410    7.7380 C.ar  238  PHE238     -0.0003
    119  CZ        33.1520   16.1370    6.8180 C.ar  238  PHE238     -0.0000
    120  N         37.1310   19.5920   -2.7710 N.3   267  ASP267     -0.1239
    121  CA        35.8250   20.0580   -2.3040 C.3   267  ASP267      0.1674
    122  C         35.9810   20.6050   -0.8750 C.2   267  ASP267      0.2266
    123  O         35.1660   20.2880    0.0230 O.2   267  ASP267     -0.2867
    124  CB        34.7880   18.9210   -2.3670 C.3   267  ASP267      0.1410
    125  CG        33.3470   19.4150   -2.2950 C.2   267  ASP267      0.3668
    126  OD1       33.1390   20.6340   -2.5000 O.co2 267  ASP267     -0.2456
    127  OD2       32.4480   18.5870   -1.9900 O.co2 267  ASP267     -0.2456
    128  N         36.6200   23.6150    2.1530 N.3   269  LEU269     -0.1245
    129  CA        36.0820   24.9720    2.4420 C.3   269  LEU269      0.1561
    130  C         36.6710   25.4840    3.7520 C.2   269  LEU269      0.2260
    131  O         37.3120   24.7250    4.4990 O.2   269  LEU269     -0.2867
    132  CB        34.5370   24.9810    2.5490 C.3   269  LEU269      0.0270
    133  CG        33.5850   23.8230    2.7410 C.3   269  LEU269      0.0019
    134  CD1       32.2150   24.2330    2.1670 C.3   269  LEU269      0.0001
    135  CD2       33.9050   22.3570    2.3120 C.3   269  LEU269      0.0001
    136  N         31.5120   26.7560    6.7580 N.3   272  PHE272     -0.1241
    137  CA        30.5660   25.7310    6.3090 C.3   272  PHE272      0.1605
    138  C         29.2810   25.8020    7.1280 C.2   272  PHE272      0.2264
    139  O         29.2420   25.2980    8.2730 O.2   272  PHE272     -0.2867
    140  CB        31.2190   24.3090    6.4080 C.3   272  PHE272      0.0534
    141  CG        30.5190   23.2140    5.6150 C.ar  272  PHE272     -0.0203
    142  CD1       29.3390   23.4510    4.8560 C.ar  272  PHE272     -0.0042
    143  CD2       31.0790   21.9260    5.5810 C.ar  272  PHE272     -0.0042
    144  CE1       28.6760   22.3850    4.2180 C.ar  272  PHE272     -0.0003
    145  CE2       30.4270   20.8580    4.9580 C.ar  272  PHE272     -0.0003
    146  CZ        29.2620   21.0850    4.2380 C.ar  272  PHE272     -0.0000
    147  N         25.9990   25.3600    5.8060 N.3   274  SER274     -0.1217
    148  CA        24.8510   24.5660    5.2740 C.3   274  SER274      0.1889
    149  C         24.7910   23.1220    5.7910 C.2   274  SER274      0.2288
    150  O         23.9850   22.3140    5.3070 O.2   274  SER274     -0.2866
    151  CB        24.8390   24.5610    3.7410 C.3   274  SER274      0.2089
    152  OG        26.1670   24.2350    3.3300 O.3   274  SER274     -0.2183
    153  N         36.2320   18.6280   10.1660 N.3   283  MET283     -0.1245
    154  CA        37.0090   18.5960    8.8920 C.3   283  MET283      0.1570
    155  C         38.4570   19.0490    9.0520 C.2   283  MET283      0.2261
    156  O         39.3690   18.4390    8.5080 O.2   283  MET283     -0.2867
    157  CB        36.3050   19.4600    7.8380 C.3   283  MET283      0.0387
    158  CG        34.9470   18.8710    7.4010 C.3   283  MET283      0.0595
    159  SD        34.0990   19.8720    6.1450 S.3   283  MET283     -0.1393
    160  CE        35.2590   19.8820    4.7870 C.3   283  MET283      0.0692
@<TRIPOS>BOND
     1    58    59    1
     2    61    60    2
     3    60    59    1
     4    59    62    1
     5    68    69    1
     6     1     2    1
     7    70    69    1
     8    70    71    2
     9     7     6   ar
    10     7     9   ar
    11     5     2    1
    12     5     6    1
    13    33    34    1
    14     2     3    1
    15    62    63    1
    16    69    72    1
    17    36    35    2
    18     6     8   ar
    19    34    35    1
    20    34    37    1
    21     9    10   ar
    22    35    47   am
    23    72    73    1
    24    63    65   ar
    25    63    64   ar
    26     3     4    2
    27    73    74   ar
    28    73    75   ar
    29    65    67   ar
    30     8    10   ar
    31    74    76   ar
    32    37    38    1
    33    75    77   ar
    34    47    48    1
    35    76    77   ar
    36    48    51    1
    37    48    49    1
    38    39    38   ar
    39    39    41   ar
    40    64    66   ar
    41    51    52    1
    42    38    40   ar
    43    67    66   ar
    44    78    79    1
    45    32    30    1
    46    54    52   ar
    47    54    56   ar
    48    49    50    2
    49    41    42   ar
    50    52    53   ar
    51    19    20   ar
    52    19    17   ar
    53    30    29    1
    54    40    42   ar
    55    40    43   ar
    56    20    18   ar
    57    17    16   ar
    58   120   121    1
    59    25    26    1
    60    56    57   ar
    61    79    82    1
    62    79    80    1
    63    29    26    1
    64    29    31    1
    65    83    82    1
    66    83    84    1
    67   126   125   ar
    68    42    44   ar
    69   124   121    1
    70   124   125    1
    71    11    12    1
    72   121   122    1
    73   125   127   ar
    74    43    45   ar
    75    84    85    1
    76    53    55   ar
    77    18    16   ar
    78    80    81    2
    79    16    15    1
    80    85    86    2
    81    12    15    1
    82    12    13    1
    83    26    27    1
    84    87    86    1
    85    86    88    1
    86    57    55   ar
    87    27    28    2
    88    44    46   ar
    89   122   123    2
    90    45    46   ar
    91    13    14    2
    92    97    95   ar
    93    97    99   ar
    94   100    99    1
    95    95    94   ar
    96    99    98   ar
    97    98    96   ar
    98    96    94   ar
    99    94    93    1
   100    93    90    1
   101    22    21    1
   102    22    23    1
   103    89    90    1
   104   128   129    1
   105   134   133    1
   106   135   133    1
   107    92    91    2
   108   129   132    1
   109   129   130    1
   110   132   133    1
   111    90    91    1
   112   104   103    2
   113    23    24    2
   114   107   106    1
   115   112   111    2
   116   152   151    1
   117   151   148    1
   118   130   131    2
   119   111   110    1
   120   103   102    1
   121   103   109   am
   122   106   108    1
   123   106   105    1
   124   144   146   ar
   125   144   142   ar
   126   146   145   ar
   127   110   109    1
   128   110   113    1
   129   102   105    1
   130   102   101    1
   131   160   159    1
   132   142   141   ar
   133   145   143   ar
   134   115   117   ar
   135   115   114   ar
   136   148   149    1
   137   148   147    1
   138   150   149    2
   139   117   119   ar
   140   113   114    1
   141   143   141   ar
   142   141   140    1
   143   114   116   ar
   144   159   158    1
   145   137   140    1
   146   137   136    1
   147   137   138    1
   148   119   118   ar
   149   138   139    2
   150   116   118   ar
   151   158   157    1
   152   157   154    1
   153   156   155    2
   154   154   155    1
   155   154   153    1
