@<TRIPOS>MOLECULE
tmp/2r1rE00.pdb
 109 104 0 0 0
SMALL
GASTEIGER

@<TRIPOS>ATOM
      1  N        -34.6640   30.7320    1.8380 N.3   228  ASP228     -0.1225
      2  CA       -34.5330   29.8480    0.6760 C.3   228  ASP228      0.1805
      3  C        -34.4400   30.6540   -0.6080 C.2   228  ASP228      0.2598
      4  O        -35.2690   30.5150   -1.5100 O.2   228  ASP228     -0.2718
      5  CB       -35.7060   28.8680    0.6610 C.3   228  ASP228      0.1424
      6  CG       -35.6290   27.7860   -0.3930 C.2   228  ASP228      0.3668
      7  OD1      -34.5090   27.3390   -0.7270 O.co2 228  ASP228     -0.2456
      8  OD2      -36.6970   27.3800   -0.9070 O.co2 228  ASP228     -0.2456
      9  N        -33.4480   31.5320   -0.7190 N.am  229  SER229     -0.1938
     10  CA       -33.2930   32.3810   -1.8900 C.3   229  SER229      0.2055
     11  C        -31.8450   32.7900   -2.0950 C.2   229  SER229      0.2643
     12  O        -31.1360   33.0350   -1.1150 O.2   229  SER229     -0.2714
     13  CB       -34.1220   33.6630   -1.7130 C.3   229  SER229      0.2130
     14  OG       -33.4190   34.5930   -0.9080 O.3   229  SER229     -0.2179
     15  N        -31.3980   32.9140   -3.3430 N.am  230  LEU230     -0.1963
     16  CA       -30.0180   33.3270   -3.6050 C.3   230  LEU230      0.1728
     17  C        -29.7130   34.6490   -2.9010 C.2   230  LEU230      0.2616
     18  O        -28.6610   34.7750   -2.2620 O.2   230  LEU230     -0.2715
     19  CB       -29.7060   33.4620   -5.0880 C.3   230  LEU230      0.0311
     20  CG       -29.7120   32.2110   -5.9630 C.3   230  LEU230      0.0022
     21  CD1      -29.3450   32.5790   -7.3960 C.3   230  LEU230      0.0001
     22  CD2      -28.7550   31.1500   -5.4360 C.3   230  LEU230      0.0001
     23  N        -30.6320   35.6120   -2.9560 N.am  231  ASP231     -0.1971
     24  CA       -30.4710   36.8660   -2.2250 C.3   231  ASP231      0.1709
     25  C        -30.1740   36.6680   -0.7400 C.2   231  ASP231      0.2293
     26  O        -29.2380   37.2810   -0.2140 O.2   231  ASP231     -0.2864
     27  CB       -31.7090   37.7590   -2.3930 C.3   231  ASP231      0.1436
     28  CG       -31.7560   38.4120   -3.7610 C.2   231  ASP231      0.3671
     29  OD1      -30.6820   38.7730   -4.2890 O.co2 231  ASP231     -0.2456
     30  OD2      -32.8650   38.5620   -4.3090 O.co2 231  ASP231     -0.2456
     31  N        -29.1530   33.7480    0.7860 N.3   233  ILE233     -0.1245
     32  CA       -27.9270   32.9670    0.9740 C.3   233  ILE233      0.1561
     33  C        -26.7460   33.9400    1.0030 C.2   233  ILE233      0.2260
     34  O        -25.9530   33.9670    1.9410 O.2   233  ILE233     -0.2867
     35  CB       -27.7110   31.9350   -0.1380 C.3   233  ILE233      0.0252
     36  CG1      -28.6570   30.7440    0.0680 C.3   233  ILE233      0.0019
     37  CG2      -26.2650   31.4660   -0.2450 C.3   233  ILE233      0.0019
     38  CD1      -29.2580   30.2150   -1.2190 C.3   233  ILE233      0.0001
     39  N        -33.5150   25.9480    3.0000 N.3   257  ILE257     -0.1231
     40  CA       -32.9950   25.6960    1.6520 C.3   257  ILE257      0.1692
     41  C        -33.5600   24.4010    1.0780 C.2   257  ILE257      0.2591
     42  O        -33.4270   23.3320    1.6820 O.2   257  ILE257     -0.2718
     43  CB       -31.4520   25.6900    1.6670 C.3   257  ILE257      0.0266
     44  CG1      -30.9500   27.0960    2.0090 C.3   257  ILE257      0.0019
     45  CG2      -30.8930   25.2010    0.3420 C.3   257  ILE257      0.0020
     46  CD1      -29.4510   27.2660    2.0290 C.3   257  ILE257      0.0001
     47  N        -34.2140   24.5020   -0.0800 N.am  258  ARG258     -0.1980
     48  CA       -34.8540   23.3450   -0.6990 C.3   258  ARG258      0.1597
     49  C        -33.9230   22.1800   -1.0320 C.2   258  ARG258      0.2287
     50  O        -32.7000   22.2830   -0.9750 O.2   258  ARG258     -0.2864
     51  CB       -35.6500   23.7190   -1.9440 C.3   258  ARG258      0.0334
     52  CG       -35.1350   24.9140   -2.7220 C.3   258  ARG258      0.0492
     53  CD       -36.0620   25.1920   -3.8940 C.3   258  ARG258      0.2205
     54  NE       -36.8150   26.4340   -3.7140 N.pl3 258  ARG258     -0.0865
     55  CZ       -37.6120   26.9130   -4.6700 C.cat 258  ARG258      0.5346
     56  NH1      -37.7590   26.2800   -5.8320 N.pl3 258  ARG258      0.1354
     57  NH2      -38.2720   28.0450   -4.4390 N.pl3 258  ARG258      0.1354
     58  N        -36.8080   24.8270   -9.9970 N.3   264  ILE264     -0.1231
     59  CA       -36.4980   26.2460   -9.8730 C.3   264  ILE264      0.1692
     60  C        -37.0860   27.0640  -11.0270 C.2   264  ILE264      0.2591
     61  O        -36.9630   26.7420  -12.2170 O.2   264  ILE264     -0.2718
     62  CB       -34.9990   26.6000   -9.8490 C.3   264  ILE264      0.0266
     63  CG1      -34.1370   25.6310   -9.0350 C.3   264  ILE264      0.0019
     64  CG2      -34.8410   28.0100   -9.2990 C.3   264  ILE264      0.0020
     65  CD1      -32.6920   25.6240   -9.5010 C.3   264  ILE264      0.0001
     66  N        -37.8260   28.1090  -10.6640 N.am  265  ARG265     -0.1980
     67  CA       -38.4470   29.0400  -11.6040 C.3   265  ARG265      0.1597
     68  C        -39.6650   28.4990  -12.3450 C.2   265  ARG265      0.2287
     69  O        -40.4170   29.2280  -13.0150 O.2   265  ARG265     -0.2864
     70  CB       -37.4070   29.5820  -12.6040 C.3   265  ARG265      0.0334
     71  CG       -37.9400   30.4490  -13.7240 C.3   265  ARG265      0.0492
     72  CD       -37.1280   31.7060  -13.9660 C.3   265  ARG265      0.2205
     73  NE       -37.9350   32.7550  -14.6190 N.pl3 265  ARG265     -0.0865
     74  CZ       -37.3480   33.8130  -15.1670 C.cat 265  ARG265      0.5346
     75  NH1      -36.0120   33.9420  -15.1410 N.pl3 265  ARG265      0.1354
     76  NH2      -38.0610   34.7760  -15.7660 N.pl3 265  ARG265      0.1354
     77  N        -35.4210   24.9420  -14.5990 N.3   269  ALA269     -0.1245
     78  CA       -34.1400   24.6190  -13.9770 C.3   269  ALA269      0.1562
     79  C        -34.4110   23.8080  -12.7140 C.2   269  ALA269      0.2260
     80  O        -35.4450   24.0300  -12.0760 O.2   269  ALA269     -0.2867
     81  CB       -33.3750   25.8870  -13.6280 C.3   269  ALA269      0.0290
     82  N        -33.0630   22.4550   -8.9880 N.3   271  HIS271     -0.1226
     83  CA       -32.1630   22.6980   -7.8750 C.3   271  HIS271      0.1752
     84  C        -30.9790   21.7320   -7.8570 C.2   271  HIS271      0.2596
     85  O        -31.0340   20.5740   -8.2530 O.2   271  HIS271     -0.2718
     86  CB       -32.9040   22.5870   -6.5450 C.3   271  HIS271      0.0759
     87  CG       -32.1990   23.1590   -5.3640 C.ar  271  HIS271      0.0818
     88  ND1      -31.8690   24.4950   -5.2440 N.ar  271  HIS271     -0.2268
     89  CD2      -31.7780   22.5770   -4.2170 C.ar  271  HIS271      0.1154
     90  CE1      -31.2820   24.6950   -4.0670 C.ar  271  HIS271      0.1986
     91  NE2      -31.1900   23.5430   -3.4330 N.ar  271  HIS271     -0.2212
     92  N        -29.8820   22.2460   -7.3290 N.am  272  THR272     -0.1953
     93  CA       -28.5970   21.5720   -7.2700 C.3   272  THR272      0.1897
     94  C        -28.2910   20.8160   -5.9980 C.2   272  THR272      0.2313
     95  O        -27.4310   19.9260   -5.9960 O.2   272  THR272     -0.2863
     96  CB       -27.5740   22.7050   -7.5420 C.3   272  THR272      0.1794
     97  OG1      -26.8330   22.3490   -8.7150 O.3   272  THR272     -0.2208
     98  CG2      -26.6820   23.0320   -6.3600 C.3   272  THR272      0.0378
     99  N        -24.1920   24.8340   -1.1590 N.3   277  PHE277     -0.1241
    100  CA       -24.2930   26.0190   -0.3220 C.3   277  PHE277      0.1605
    101  C        -23.6470   25.8220    1.0410 C.2   277  PHE277      0.2264
    102  O        -22.9310   26.7180    1.5040 O.2   277  PHE277     -0.2867
    103  CB       -25.7700   26.4120   -0.1490 C.3   277  PHE277      0.0534
    104  CG       -26.3550   26.7910   -1.4830 C.ar  277  PHE277     -0.0203
    105  CD1      -25.9610   27.9760   -2.0730 C.ar  277  PHE277     -0.0042
    106  CD2      -27.2410   25.9670   -2.1410 C.ar  277  PHE277     -0.0042
    107  CE1      -26.4550   28.3420   -3.3090 C.ar  277  PHE277     -0.0003
    108  CE2      -27.7440   26.3260   -3.3750 C.ar  277  PHE277     -0.0003
    109  CZ       -27.3490   27.5150   -3.9600 C.ar  277  PHE277     -0.0000
@<TRIPOS>BOND
     1    76    74    1
     2    74    75    1
     3    74    73    2
     4    73    72    1
     5    77    78    1
     6    78    81    1
     7    78    79    1
     8    72    71    1
     9    71    70    1
    10    69    68    2
    11    79    80    2
    12    70    67    1
    13    68    67    1
    14    61    60    2
    15    67    66    1
    16    60    66   am
    17    60    59    1
    18    58    59    1
    19    59    62    1
    20    62    64    1
    21    62    63    1
    22    65    63    1
    23    82    83    1
    24    97    96    1
    25    85    84    2
    26    83    84    1
    27    83    86    1
    28    84    92   am
    29    96    93    1
    30    96    98    1
    31    21    20    1
    32    92    93    1
    33    93    94    1
    34    86    87    1
    35    94    95    2
    36    20    22    1
    37    20    19    1
    38    56    55    1
    39    87    88   ar
    40    87    89   ar
    41    88    90   ar
    42    19    16    1
    43    55    57    1
    44    55    54    2
    45    30    28   ar
    46    29    28   ar
    47    89    91   ar
    48    90    91   ar
    49   109   108   ar
    50   109   107   ar
    51    53    54    1
    52    53    52    1
    53    28    27    1
    54    16    15    1
    55    16    17    1
    56   108   106   ar
    57    15    11   am
    58   107   105   ar
    59    23    17   am
    60    23    24    1
    61    17    18    2
    62    52    51    1
    63    27    24    1
    64    24    25    1
    65   106   104   ar
    66    11    10    1
    67    11    12    2
    68   105   104   ar
    69    51    48    1
    70    10    13    1
    71    10     9    1
    72    13    14    1
    73     4     3    2
    74   104   103    1
    75    38    36    1
    76    99   100    1
    77    49    50    2
    78    49    48    1
    79     8     6   ar
    80    25    26    2
    81     7     6   ar
    82     9     3   am
    83    48    47    1
    84     3     2    1
    85     6     5    1
    86   100   103    1
    87   100   101    1
    88    37    35    1
    89    35    36    1
    90    35    32    1
    91    47    41   am
    92    45    43    1
    93     5     2    1
    94     2     1    1
    95    31    32    1
    96    32    33    1
    97    33    34    2
    98   101   102    2
    99    41    40    1
   100    41    42    2
   101    40    43    1
   102    40    39    1
   103    43    44    1
   104    44    46    1
