@<TRIPOS>MOLECULE
tmp/2r26B01.pdb
 209 204 0 0 0
SMALL
GASTEIGER

@<TRIPOS>ATOM
      1  N         35.5000   51.0970   49.8600 N.3     8  GLU8       -0.1245
      2  CA        36.2660   52.2870   50.2110 C.3     8  GLU8        0.1567
      3  C         36.9620   52.1270   51.5560 C.2     8  GLU8        0.2260
      4  O         36.3240   51.7920   52.5560 O.2     8  GLU8       -0.2867
      5  CB        35.3750   53.5330   50.2120 C.3     8  GLU8        0.0388
      6  CG        36.1190   54.8210   50.5490 C.3     8  GLU8        0.1160
      7  CD        35.3820   56.0760   50.1170 C.2     8  GLU8        0.3649
      8  OE1       36.0570   57.1090   49.9220 O.co2   8  GLU8       -0.2457
      9  OE2       34.1400   56.0370   49.9680 O.co2   8  GLU8       -0.2457
     10  N         34.5180   52.7750   31.3860 N.3   217  PRO217     -0.2102
     11  CA        34.6730   54.2350   31.3330 C.3   217  PRO217      0.1504
     12  C         34.9860   54.8920   32.6800 C.2   217  PRO217      0.2576
     13  O         35.5950   55.9560   32.7070 O.2   217  PRO217     -0.2718
     14  CB        33.3140   54.7190   30.8020 C.3   217  PRO217      0.0282
     15  CG        32.3630   53.6210   31.1040 C.3   217  PRO217      0.0208
     16  CD        33.1580   52.3550   30.9970 C.3   217  PRO217      0.0893
     17  N         34.5800   54.2680   33.7830 N.am  218  LEU218     -0.1966
     18  CA        34.8760   54.8090   35.1090 C.3   218  LEU218      0.1728
     19  C         36.3360   54.5760   35.4920 C.2   218  LEU218      0.2616
     20  O         36.8570   55.2050   36.4170 O.2   218  LEU218     -0.2715
     21  CB        33.9390   54.2270   36.1740 C.3   218  LEU218      0.0311
     22  CG        32.4270   54.4890   36.0780 C.3   218  LEU218      0.0022
     23  CD1       31.7430   54.0130   37.3520 C.3   218  LEU218      0.0001
     24  CD2       32.0920   55.9570   35.8150 C.3   218  LEU218      0.0001
     25  N         36.9890   53.6770   34.7620 N.am  219  HIS219     -0.1959
     26  CA        38.3860   53.3450   34.9980 C.3   219  HIS219      0.1787
     27  C         39.2350   53.8170   33.8070 C.2   219  HIS219      0.2620
     28  O         39.1690   54.9870   33.4320 O.2   219  HIS219     -0.2715
     29  CB        38.5240   51.8400   35.2760 C.3   219  HIS219      0.0785
     30  CG        39.8290   51.4460   35.8970 C.ar  219  HIS219      0.0821
     31  ND1       40.6120   52.3230   36.6160 N.ar  219  HIS219     -0.2267
     32  CD2       40.4750   50.2570   35.9270 C.ar  219  HIS219      0.1154
     33  CE1       41.6930   51.6970   37.0450 C.ar  219  HIS219      0.1986
     34  NE2       41.6330   50.4410   36.6420 N.ar  219  HIS219     -0.2212
     35  N         40.0130   52.9130   33.2150 N.am  220  GLY220     -0.1954
     36  CA        40.9080   53.2400   32.1060 C.3   220  GLY220      0.1869
     37  C         40.2230   53.7460   30.8500 C.2   220  GLY220      0.2309
     38  O         40.8210   54.4920   30.0750 O.2   220  GLY220     -0.2863
     39  N         38.3170   56.0320   30.5370 N.3   222  ALA222     -0.1245
     40  CA        38.3080   57.4960   30.5730 C.3   222  ALA222      0.1562
     41  C         39.4700   58.1040   29.7890 C.2   222  ALA222      0.2260
     42  O         39.4370   59.2840   29.4410 O.2   222  ALA222     -0.2867
     43  CB        38.3070   57.9970   32.0050 C.3   222  ALA222      0.0290
     44  N         26.9440   68.6800   31.8180 N.3   247  ILE247     -0.1245
     45  CA        27.4040   68.3630   33.1720 C.3   247  ILE247      0.1561
     46  C         26.4670   68.9010   34.2560 C.2   247  ILE247      0.2260
     47  O         25.9790   68.1390   35.0910 O.2   247  ILE247     -0.2867
     48  CB        28.8560   68.8660   33.4310 C.3   247  ILE247      0.0252
     49  CG1       29.7970   68.5030   32.2670 C.3   247  ILE247      0.0019
     50  CG2       29.3800   68.3520   34.7740 C.3   247  ILE247      0.0019
     51  CD1       29.9690   67.0060   31.9950 C.3   247  ILE247      0.0001
     52  N         23.6990   66.1770   34.0940 N.3   251  LYS251     -0.1231
     53  CA        24.1910   65.3650   35.2220 C.3   251  LYS251      0.1693
     54  C         25.2520   64.3140   34.8510 C.2   251  LYS251      0.2592
     55  O         25.7190   63.5690   35.7210 O.2   251  LYS251     -0.2718
     56  CB        23.0320   64.7230   36.0060 C.3   251  LYS251      0.0285
     57  CG        22.1680   65.7150   36.7780 C.3   251  LYS251      0.0035
     58  CD        20.9810   65.0210   37.4410 C.3   251  LYS251      0.0206
     59  CE        20.1210   66.0080   38.2260 C.3   251  LYS251      0.1093
     60  NZ        19.4430   67.0110   37.3500 N.3   251  LYS251     -0.1314
     61  N         25.6320   64.2580   33.5730 N.am  252  LYS252     -0.1966
     62  CA        26.7260   63.3910   33.1270 C.3   252  LYS252      0.1728
     63  C         28.0220   63.7940   33.8210 C.2   252  LYS252      0.2616
     64  O         28.2400   64.9760   34.1110 O.2   252  LYS252     -0.2715
     65  CB        26.8980   63.4610   31.6080 C.3   252  LYS252      0.0311
     66  CG        25.8180   62.7260   30.8260 C.3   252  LYS252      0.0038
     67  CD        25.7230   63.2040   29.3770 C.3   252  LYS252      0.0206
     68  CE        26.7570   62.5350   28.4710 C.3   252  LYS252      0.1093
     69  NZ        26.5080   62.8380   27.0300 N.3   252  LYS252     -0.1314
     70  N         28.8690   62.8100   34.1020 N.am  253  ARG253     -0.1963
     71  CA        30.1310   63.0630   34.7870 C.3   253  ARG253      0.1729
     72  C         31.1830   63.5960   33.8230 C.2   253  ARG253      0.2616
     73  O         31.2660   63.1580   32.6730 O.2   253  ARG253     -0.2715
     74  CB        30.6450   61.7960   35.4760 C.3   253  ARG253      0.0348
     75  CG        29.7810   61.3150   36.6290 C.3   253  ARG253      0.0492
     76  CD        30.4530   60.1870   37.3860 C.3   253  ARG253      0.2205
     77  NE        29.5660   59.6110   38.3940 N.pl3 253  ARG253     -0.0865
     78  CZ        29.9550   58.8100   39.3820 C.cat 253  ARG253      0.5346
     79  NH1       29.0600   58.3430   40.2400 N.pl3 253  ARG253      0.1354
     80  NH2       31.2310   58.4770   39.5220 N.pl3 253  ARG253      0.1354
     81  N         31.9810   64.5440   34.3050 N.am  254  LEU254     -0.1963
     82  CA        33.0910   65.1010   33.5410 C.3   254  LEU254      0.1728
     83  C         34.2620   64.1160   33.5370 C.2   254  LEU254      0.2616
     84  O         34.8960   63.8860   34.5670 O.2   254  LEU254     -0.2715
     85  CB        33.5050   66.4540   34.1310 C.3   254  LEU254      0.0311
     86  CG        34.5960   67.2940   33.4650 C.3   254  LEU254      0.0022
     87  CD1       34.2410   67.6540   32.0280 C.3   254  LEU254      0.0001
     88  CD2       34.8260   68.5480   34.2920 C.3   254  LEU254      0.0001
     89  N         34.5350   63.5340   32.3730 N.am  255  MET255     -0.1963
     90  CA        35.5310   62.4690   32.2540 C.3   255  MET255      0.1736
     91  C         36.9580   63.0140   32.2820 C.2   255  MET255      0.2617
     92  O         37.2580   64.0460   31.6730 O.2   255  MET255     -0.2715
     93  CB        35.2790   61.6190   31.0000 C.3   255  MET255      0.0427
     94  CG        33.8190   61.1870   30.8170 C.3   255  MET255      0.0599
     95  SD        33.1400   60.2230   32.1890 S.3   255  MET255     -0.1393
     96  CE        33.6870   58.5830   31.7170 C.3   255  MET255      0.0692
     97  N         37.8300   62.3100   32.9970 N.am  256  GLY256     -0.1940
     98  CA        39.1700   62.8060   33.2870 C.3   256  GLY256      0.2014
     99  C         39.1870   63.6540   34.5490 C.2   256  GLY256      0.2639
    100  O         40.1910   64.2870   34.8650 O.2   256  GLY256     -0.2714
    101  N         38.0670   63.6620   35.2670 N.am  257  PHE257     -0.1959
    102  CA        37.9450   64.3800   36.5310 C.3   257  PHE257      0.1771
    103  C         37.4990   63.4530   37.6530 C.2   257  PHE257      0.2620
    104  O         36.5850   62.6370   37.4780 O.2   257  PHE257     -0.2715
    105  CB        36.9620   65.5460   36.4030 C.3   257  PHE257      0.0574
    106  CG        37.6160   66.8720   36.1310 C.ar  257  PHE257     -0.0200
    107  CD1       37.6330   67.8620   37.1100 C.ar  257  PHE257     -0.0042
    108  CD2       38.2070   67.1380   34.8990 C.ar  257  PHE257     -0.0042
    109  CE1       38.2320   69.0960   36.8690 C.ar  257  PHE257     -0.0003
    110  CE2       38.8090   68.3650   34.6490 C.ar  257  PHE257     -0.0003
    111  CZ        38.8210   69.3470   35.6340 C.ar  257  PHE257     -0.0000
    112  N         38.1540   63.5820   38.8020 N.am  258  GLY258     -0.1940
    113  CA        37.7820   62.8220   39.9860 C.3   258  GLY258      0.2014
    114  C         38.5930   61.5640   40.1730 C.2   258  GLY258      0.2639
    115  O         39.2850   61.1070   39.2590 O.2   258  GLY258     -0.2714
    116  N         38.4980   61.0010   41.3700 N.am  259  HIS259     -0.1959
    117  CA        39.3060   59.8590   41.7490 C.3   259  HIS259      0.1787
    118  C         38.7930   59.2740   43.0550 C.2   259  HIS259      0.2620
    119  O         38.1680   59.9760   43.8480 O.2   259  HIS259     -0.2715
    120  CB        40.7630   60.2910   41.9140 C.3   259  HIS259      0.0785
    121  CG        41.7450   59.1880   41.6960 C.ar  259  HIS259      0.0821
    122  ND1       42.1400   58.3370   42.7030 N.ar  259  HIS259     -0.2267
    123  CD2       42.4100   58.7940   40.5850 C.ar  259  HIS259      0.1154
    124  CE1       43.0080   57.4650   42.2240 C.ar  259  HIS259      0.1986
    125  NE2       43.1900   57.7210   40.9400 N.ar  259  HIS259     -0.2212
    126  N         39.0550   57.9880   43.2730 N.am  260  ARG260     -0.1977
    127  CA        38.7220   57.3440   44.5400 C.3   260  ARG260      0.1597
    128  C         39.6360   57.8200   45.6690 C.2   260  ARG260      0.2287
    129  O         39.1780   58.0300   46.7930 O.2   260  ARG260     -0.2864
    130  CB        38.7740   55.8150   44.4120 C.3   260  ARG260      0.0334
    131  CG        38.5480   55.0430   45.7260 C.3   260  ARG260      0.0492
    132  CD        37.2310   55.4170   46.4250 C.3   260  ARG260      0.2205
    133  NE        36.0630   55.1600   45.5870 N.pl3 260  ARG260     -0.0865
    134  CZ        35.3970   54.0090   45.5600 C.cat 260  ARG260      0.5346
    135  NH1       35.7750   52.9950   46.3280 N.pl3 260  ARG260      0.1354
    136  NH2       34.3480   53.8720   44.7660 N.pl3 260  ARG260      0.1354
    137  N         42.0470   63.6420   46.3130 N.3   263  LYS263     -0.1245
    138  CA        41.0690   64.6990   46.5550 C.3   263  LYS263      0.1561
    139  C         41.6780   66.0420   46.1670 C.2   263  LYS263      0.2260
    140  O         41.2190   67.1050   46.5900 O.2   263  LYS263     -0.2867
    141  CB        40.5960   64.6960   48.0120 C.3   263  LYS263      0.0271
    142  CG        39.8740   63.4190   48.4340 C.3   263  LYS263      0.0035
    143  CD        38.6870   63.1040   47.5280 C.3   263  LYS263      0.0206
    144  CE        38.2370   61.6650   47.7100 C.3   263  LYS263      0.1093
    145  NZ        37.2930   61.2460   46.6390 N.3   263  LYS263     -0.1314
    146  N         50.2050   62.7040   38.2040 N.3   268  ARG268     -0.1245
    147  CA        50.3790   62.2170   36.8280 C.3   268  ARG268      0.1563
    148  C         49.7340   63.1460   35.7960 C.2   268  ARG268      0.2260
    149  O         50.3070   63.3930   34.7350 O.2   268  ARG268     -0.2867
    150  CB        49.7930   60.8110   36.6720 C.3   268  ARG268      0.0307
    151  CG        50.3940   59.7560   37.5930 C.3   268  ARG268      0.0489
    152  CD        49.4990   58.5300   37.6700 C.3   268  ARG268      0.2205
    153  NE        48.1840   58.8490   38.2250 N.pl3 268  ARG268     -0.0865
    154  CZ        47.1820   57.9840   38.3420 C.cat 268  ARG268      0.5346
    155  NH1       47.3230   56.7280   37.9390 N.pl3 268  ARG268      0.1354
    156  NH2       46.0260   58.3800   38.8560 N.pl3 268  ARG268      0.1354
    157  N         33.9370   71.6920   40.6860 N.3   304  PHE304     -0.1241
    158  CA        34.1150   70.4430   41.4220 C.3   304  PHE304      0.1605
    159  C         35.2990   70.3990   42.3960 C.2   304  PHE304      0.2264
    160  O         35.3580   69.5190   43.2550 O.2   304  PHE304     -0.2867
    161  CB        34.1660   69.2540   40.4490 C.3   304  PHE304      0.0534
    162  CG        32.9110   69.0820   39.6280 C.ar  304  PHE304     -0.0203
    163  CD1       32.9650   69.1220   38.2410 C.ar  304  PHE304     -0.0042
    164  CD2       31.6770   68.8840   40.2460 C.ar  304  PHE304     -0.0042
    165  CE1       31.8110   68.9640   37.4780 C.ar  304  PHE304     -0.0003
    166  CE2       30.5170   68.7280   39.4910 C.ar  304  PHE304     -0.0003
    167  CZ        30.5860   68.7670   38.1040 C.ar  304  PHE304     -0.0000
    168  N         37.1990   67.0400   43.6640 N.3   309  ILE309     -0.1245
    169  CA        37.1810   66.4360   42.3350 C.3   309  ILE309      0.1561
    170  C         37.9920   67.2840   41.3500 C.2   309  ILE309      0.2260
    171  O         37.5550   68.3580   40.9240 O.2   309  ILE309     -0.2867
    172  CB        35.7180   66.1830   41.8620 C.3   309  ILE309      0.0252
    173  CG1       35.0240   65.1890   42.8060 C.3   309  ILE309      0.0019
    174  CG2       35.6720   65.6730   40.4200 C.3   309  ILE309      0.0019
    175  CD1       33.5070   65.2310   42.7680 C.3   309  ILE309      0.0001
    176  N         42.1920   64.0700   36.7290 N.3   312  ASN312     -0.1225
    177  CA        42.9450   62.8410   36.9450 C.3   312  ASN312      0.1785
    178  C         43.8590   62.5520   35.7600 C.2   312  ASN312      0.2598
    179  O         43.8740   63.3080   34.7830 O.2   312  ASN312     -0.2718
    180  CB        42.0230   61.6520   37.2710 C.3   312  ASN312      0.1169
    181  CG        41.0830   61.2890   36.1270 C.2   312  ASN312      0.2627
    182  OD1       41.5150   61.0210   35.0040 O.2   312  ASN312     -0.2716
    183  ND2       39.7900   61.2480   36.4220 N.am  312  ASN312     -0.0877
    184  N         44.6060   61.4530   35.8590 N.am  313  THR313     -0.1939
    185  CA        45.6160   61.0570   34.8710 C.3   313  THR313      0.2028
    186  C         45.0940   60.8770   33.4370 C.2   313  THR313      0.2642
    187  O         45.8460   61.0420   32.4750 O.2   313  THR313     -0.2714
    188  CB        46.3580   59.7660   35.3260 C.3   313  THR313      0.1808
    189  OG1       47.4500   59.4910   34.4410 O.3   313  THR313     -0.2208
    190  CG2       45.4150   58.5670   35.3530 C.3   313  THR313      0.0379
    191  N         43.8170   60.5370   33.2930 N.am  314  ASP314     -0.1971
    192  CA        43.2570   60.2580   31.9780 C.3   314  ASP314      0.1709
    193  C         42.9130   61.5190   31.1930 C.2   314  ASP314      0.2293
    194  O         42.7850   61.4650   29.9680 O.2   314  ASP314     -0.2864
    195  CB        42.0320   59.3430   32.0880 C.3   314  ASP314      0.1436
    196  CG        42.3910   57.9260   32.5130 C.2   314  ASP314      0.3671
    197  OD1       41.4780   57.1910   32.9470 O.co2 314  ASP314     -0.2456
    198  OD2       43.5760   57.5400   32.4160 O.co2 314  ASP314     -0.2456
    199  N         47.3280   52.5950   27.9140 N.3   337  PHE337     -0.1241
    200  CA        47.2900   52.5380   29.3750 C.3   337  PHE337      0.1605
    201  C         47.6160   51.1010   29.8060 C.2   337  PHE337      0.2264
    202  O         48.5500   50.8770   30.5770 O.2   337  PHE337     -0.2867
    203  CB        45.8900   52.9710   29.8610 C.3   337  PHE337      0.0534
    204  CG        45.7140   53.0230   31.3710 C.ar  337  PHE337     -0.0203
    205  CD1       44.6900   53.7920   31.9180 C.ar  337  PHE337     -0.0042
    206  CD2       46.5380   52.3010   32.2400 C.ar  337  PHE337     -0.0042
    207  CE1       44.4880   53.8440   33.2970 C.ar  337  PHE337     -0.0003
    208  CE2       46.3470   52.3500   33.6180 C.ar  337  PHE337     -0.0003
    209  CZ        45.3210   53.1240   34.1490 C.ar  337  PHE337     -0.0000
@<TRIPOS>BOND
     1    69    68    1
     2   199   200    1
     3    68    67    1
     4   200   201    1
     5   200   203    1
     6    67    66    1
     7    42    41    2
     8    41    40    1
     9   201   202    2
    10   203   204    1
    11   194   193    2
    12    38    37    2
    13    39    40    1
    14    40    43    1
    15    14    15    1
    16    14    11    1
    17    94    93    1
    18    94    95    1
    19    66    65    1
    20    37    36    1
    21    16    15    1
    22    16    10    1
    23    93    90    1
    24   193   192    1
    25    11    10    1
    26    11    12    1
    27   204   205   ar
    28   204   206   ar
    29    65    62    1
    30    92    91    2
    31    96    95    1
    32    44    45    1
    33   205   207   ar
    34   192   195    1
    35   192   191    1
    36    51    49    1
    37    87    86    1
    38   195   196    1
    39    36    35    1
    40   206   208   ar
    41    90    91    1
    42    90    89    1
    43    49    48    1
    44    91    97   am
    45    89    83   am
    46   198   196   ar
    47   187   186    2
    48   196   197   ar
    49    73    72    2
    50    12    13    2
    51    12    17   am
    52    97    98    1
    53    62    61    1
    54    62    63    1
    55    45    48    1
    56    45    46    1
    57    35    27   am
    58    98    99    1
    59   191   186   am
    60   207   209   ar
    61    48    50    1
    62    28    27    2
    63   186   185    1
    64    86    85    1
    65    86    88    1
    66    83    82    1
    67    83    84    2
    68    82    85    1
    69    82    81    1
    70    61    54   am
    71   208   209   ar
    72    17    18    1
    73    27    26    1
    74    63    70   am
    75    63    64    2
    76    72    81   am
    77    72    71    1
    78    52    53    1
    79    70    71    1
    80    46    47    2
    81   189   188    1
    82    99   100    2
    83    99   101   am
    84   110   108   ar
    85   110   111   ar
    86   149   148    2
    87    25    26    1
    88    25    19   am
    89   179   178    2
    90    71    74    1
    91    54    53    1
    92    54    55    2
    93   185   188    1
    94   185   184    1
    95   108   106   ar
    96    26    29    1
    97   182   181    2
    98    18    19    1
    99    18    21    1
   100    53    56    1
   101   101   102    1
   102    29    30    1
   103   188   190    1
   104    74    75    1
   105    19    20    2
   106   111   109   ar
   107   178   184   am
   108   178   177    1
   109   148   147    1
   110    24    22    1
   111    30    32   ar
   112    30    31   ar
   113    32    34   ar
   114    56    57    1
   115    22    21    1
   116    22    23    1
   117   181   183   am
   118   181   180    1
   119   106   105    1
   120   106   107   ar
   121   105   102    1
   122   102   103    1
   123    31    33   ar
   124    75    76    1
   125    34    33   ar
   126   150   147    1
   127   150   151    1
   128   176   177    1
   129    57    58    1
   130   147   146    1
   131   109   107   ar
   132   177   180    1
   133    60    59    1
   134    76    77    1
   135    58    59    1
   136   104   103    2
   137   165   167   ar
   138   165   163   ar
   139   151   152    1
   140   103   112   am
   141   152   153    1
   142   155   154    1
   143   167   166   ar
   144   153   154    2
   145   163   162   ar
   146   154   156    1
   147    77    78    2
   148   112   113    1
   149   115   114    2
   150    78    80    1
   151    78    79    1
   152   166   164   ar
   153   162   164   ar
   154   162   161    1
   155   113   114    1
   156   114   116   am
   157   174   172    1
   158   161   158    1
   159   123   125   ar
   160   123   121   ar
   161   157   158    1
   162   171   170    2
   163   125   124   ar
   164   170   169    1
   165   116   117    1
   166   158   159    1
   167   121   120    1
   168   121   122   ar
   169   117   120    1
   170   117   118    1
   171   172   169    1
   172   172   173    1
   173   124   122   ar
   174   169   168    1
   175   159   160    2
   176   175   173    1
   177   118   126   am
   178   118   119    2
   179   126   127    1
   180   130   127    1
   181   130   131    1
   182   127   128    1
   183   136   134    1
   184   134   133    2
   185   134   135    1
   186   133   132    1
   187   128   129    2
   188   131   132    1
   189   139   138    1
   190   139   140    2
   191   137   138    1
   192   138   141    1
   193   145   144    1
   194   143   144    1
   195   143   142    1
   196   141   142    1
   197     1     2    1
   198     8     7   ar
   199     9     7   ar
   200     7     6    1
   201     2     5    1
   202     2     3    1
   203     5     6    1
   204     3     4    2
