@<TRIPOS>MOLECULE
tmp/2r2bB00.pdb
 82 78 0 0 0
SMALL
GASTEIGER

@<TRIPOS>ATOM
      1  N         -3.9730   -6.2860   62.4270 N.3    33  TYR33      -0.1241
      2  CA        -5.1160   -5.9090   61.6070 C.3    33  TYR33       0.1605
      3  C         -4.6600   -6.0850   60.1670 C.2    33  TYR33       0.2264
      4  O         -3.4860   -5.9280   59.8650 O.2    33  TYR33      -0.2867
      5  CB        -5.4210   -4.4320   61.7420 C.3    33  TYR33       0.0534
      6  CG        -5.9950   -3.9130   63.0510 C.ar   33  TYR33      -0.0201
      7  CD1       -5.5540   -4.3800   64.2890 C.ar   33  TYR33      -0.0009
      8  CD2       -6.9370   -2.8960   63.0290 C.ar   33  TYR33      -0.0009
      9  CE1       -6.0780   -3.8370   65.4960 C.ar   33  TYR33       0.0417
     10  CE2       -7.4630   -2.3460   64.2080 C.ar   33  TYR33       0.0417
     11  CZ        -7.0360   -2.8340   65.4380 C.ar   33  TYR33       0.1957
     12  OH        -7.5630   -2.2660   66.5820 O.3    33  TYR33      -0.2866
     13  N        -11.1630   -3.1230   57.0900 N.3    50  PHE50      -0.1241
     14  CA       -10.1700   -3.9310   57.7870 C.3    50  PHE50       0.1605
     15  C        -10.8130   -5.0010   58.6630 C.2    50  PHE50       0.2264
     16  O        -12.0120   -4.9580   58.9370 O.2    50  PHE50      -0.2867
     17  CB        -9.1270   -3.0870   58.5590 C.3    50  PHE50       0.0534
     18  CG        -9.6490   -2.2760   59.7540 C.ar   50  PHE50      -0.0203
     19  CD1      -10.5480   -2.7950   60.6780 C.ar   50  PHE50      -0.0042
     20  CD2       -9.1190   -1.0020   59.9800 C.ar   50  PHE50      -0.0042
     21  CE1      -10.9870   -2.0050   61.7990 C.ar   50  PHE50      -0.0003
     22  CE2       -9.5230   -0.1970   61.0840 C.ar   50  PHE50      -0.0003
     23  CZ       -10.4470   -0.7060   62.0000 C.ar   50  PHE50      -0.0000
     24  N         -9.7710   -6.6480   62.4430 N.3    52  ARG52      -0.1245
     25  CA        -8.8900   -6.4260   63.5760 C.3    52  ARG52       0.1563
     26  C         -8.0700   -7.6650   63.9650 C.2    52  ARG52       0.2260
     27  O         -8.2730   -8.7650   63.4360 O.2    52  ARG52      -0.2867
     28  CB        -9.6740   -5.8470   64.7640 C.3    52  ARG52       0.0307
     29  CG       -10.3280   -4.4930   64.4380 C.3    52  ARG52       0.0489
     30  CD       -10.7570   -3.7800   65.7150 C.3    52  ARG52       0.2205
     31  NE       -11.2410   -2.4160   65.5180 N.pl3  52  ARG52      -0.0865
     32  CZ       -12.4880   -2.0560   65.1810 C.cat  52  ARG52       0.5346
     33  NH1      -13.4230   -2.9750   64.9050 N.pl3  52  ARG52       0.1354
     34  NH2      -12.7870   -0.7700   65.0580 N.pl3  52  ARG52       0.1354
     35  N         -6.2870   -9.6610   69.6640 N.3    55  ALA55      -0.1231
     36  CA        -6.5160   -8.8380   70.8490 C.3    55  ALA55       0.1694
     37  C         -7.8030   -8.0150   70.7660 C.2    55  ALA55       0.2592
     38  O         -8.4180   -7.7100   71.7950 O.2    55  ALA55      -0.2718
     39  CB        -5.3300   -7.9320   71.1000 C.3    55  ALA55       0.0304
     40  N         -8.2060   -7.6650   69.5340 N.am   56  ASN56      -0.1960
     41  CA        -9.4060   -6.8770   69.3030 C.3    56  ASN56       0.1819
     42  C        -10.5750   -7.6810   68.7480 C.2    56  ASN56       0.2621
     43  O        -11.5410   -7.1200   68.2390 O.2    56  ASN56      -0.2715
     44  CB        -9.0780   -5.6590   68.4250 C.3    56  ASN56       0.1195
     45  CG        -8.3560   -4.6010   69.1910 C.2    56  ASN56       0.2630
     46  OD1       -8.9860   -3.7280   69.8020 O.2    56  ASN56      -0.2716
     47  ND2       -7.0290   -4.6920   69.2270 N.am   56  ASN56      -0.0877
     48  N        -10.4950   -9.0020   68.8770 N.am   57  GLY57      -0.1954
     49  CA       -11.6530   -9.8580   68.6260 C.3    57  GLY57       0.1869
     50  C        -11.9550  -10.0680   67.1530 C.2    57  GLY57       0.2309
     51  O        -13.0470  -10.5290   66.7950 O.2    57  GLY57      -0.2863
     52  N         -1.7420   -4.0300   58.4770 N.3   101  ASP101     -0.1225
     53  CA        -2.2330   -2.8120   59.1260 C.3   101  ASP101      0.1805
     54  C         -1.7450   -2.8220   60.5960 C.2   101  ASP101      0.2597
     55  O         -0.6680   -3.3690   60.8900 O.2   101  ASP101     -0.2718
     56  CB        -3.7770   -2.7750   58.9860 C.3   101  ASP101      0.1424
     57  CG        -4.4240   -1.3750   59.1700 C.2   101  ASP101      0.3668
     58  OD1       -5.5250   -1.1810   58.5960 O.co2 101  ASP101     -0.2456
     59  OD2       -3.9180   -0.4910   59.9050 O.co2 101  ASP101     -0.2456
     60  N         -2.5560   -2.2320   61.4830 N.am  102  HIS102     -0.1975
     61  CA        -2.2200   -1.9330   62.9020 C.3   102  HIS102      0.1656
     62  C         -1.8860   -3.1710   63.7280 C.2   102  HIS102      0.2291
     63  O         -2.5040   -4.2170   63.5540 O.2   102  HIS102     -0.2864
     64  CB        -3.4560   -1.2930   63.5150 C.3   102  HIS102      0.0771
     65  CG        -3.2160   -0.5310   64.7820 C.ar  102  HIS102      0.0820
     66  ND1       -4.0320   -0.6430   65.8910 N.ar  102  HIS102     -0.2267
     67  CD2       -2.2920    0.4030   65.0880 C.ar  102  HIS102      0.1154
     68  CE1       -3.6000    0.1850   66.8310 C.ar  102  HIS102      0.1986
     69  NE2       -2.5500    0.8340   66.3630 N.ar  102  HIS102     -0.2212
     70  N         -1.7260   -2.6830   67.1910 N.3   104  GLY104     -0.1225
     71  CA        -2.0890   -2.1670   68.5240 C.3   104  GLY104      0.1811
     72  C         -1.2120   -1.0010   68.9290 C.2   104  GLY104      0.2280
     73  O         -1.5070   -0.2830   69.9050 O.2   104  GLY104     -0.2866
     74  N          1.0360    3.0570   63.6890 N.3   107  GLU107     -0.1245
     75  CA         0.0630    3.5160   62.6850 C.3   107  GLU107      0.1567
     76  C          0.7560    3.5670   61.3220 C.2   107  GLU107      0.2260
     77  O          1.4940    4.5060   61.0220 O.2   107  GLU107     -0.2867
     78  CB        -0.5400    4.8740   63.0710 C.3   107  GLU107      0.0388
     79  CG        -1.4890    4.7990   64.2650 C.3   107  GLU107      0.1160
     80  CD        -2.7510    3.9810   63.9950 C.2   107  GLU107      0.3649
     81  OE1       -3.3600    3.4940   64.9720 O.co2 107  GLU107     -0.2457
     82  OE2       -3.1480    3.8240   62.8160 O.co2 107  GLU107     -0.2457
@<TRIPOS>BOND
     1    13    14    1
     2    14    17    1
     3    14    15    1
     4    52    53    1
     5    17    18    1
     6    58    57   ar
     7    15    16    2
     8    56    53    1
     9    56    57    1
    10    53    54    1
    11    57    59   ar
    12    18    20   ar
    13    18    19   ar
    14     4     3    2
    15    20    22   ar
    16     3     2    1
    17    54    55    2
    18    54    60   am
    19    19    21   ar
    20    77    76    2
    21    22    23   ar
    22    76    75    1
    23    60    61    1
    24     2     5    1
    25     2     1    1
    26     5     6    1
    27    21    23   ar
    28    24    25    1
    29    75    78    1
    30    75    74    1
    31    82    80   ar
    32    61    64    1
    33    61    62    1
    34     8     6   ar
    35     8    10   ar
    36     6     7   ar
    37    78    79    1
    38    27    26    2
    39    64    65    1
    40    63    62    2
    41    25    26    1
    42    25    28    1
    43    80    79    1
    44    80    81   ar
    45    10    11   ar
    46     7     9   ar
    47    29    28    1
    48    29    30    1
    49    65    67   ar
    50    65    66   ar
    51    33    32    1
    52    34    32    1
    53    67    69   ar
    54    32    31    2
    55    11     9   ar
    56    11    12    1
    57    31    30    1
    58    66    68   ar
    59    69    68   ar
    60    51    50    2
    61    50    49    1
    62    70    71    1
    63    43    42    2
    64    44    45    1
    65    44    41    1
    66    71    72    1
    67    49    48    1
    68    42    48   am
    69    42    41    1
    70    72    73    2
    71    45    47   am
    72    45    46    2
    73    41    40    1
    74    40    37   am
    75    35    36    1
    76    37    36    1
    77    37    38    2
    78    36    39    1
