@<TRIPOS>MOLECULE
tmp/2r2iA00.pdb
 169 159 0 0 0
SMALL
GASTEIGER

@<TRIPOS>ATOM
      1  N          2.1140   53.0280   45.7480 N.3     1  GLY1       -0.1210
      2  CA         0.8530   53.7440   45.6940 C.3     1  GLY1        0.1956
      3  C         -0.0230   53.8230   46.9330 C.2     1  GLY1        0.2612
      4  O         -0.0840   54.8620   47.5910 O.2     1  GLY1       -0.2717
      5  N         -0.7000   52.7220   47.2510 N.am    2  ASN2       -0.1960
      6  CA        -1.6290   52.6780   48.3810 C.3     2  ASN2        0.1819
      7  C         -1.3600   51.5770   49.4090 C.2     2  ASN2        0.2621
      8  O         -2.3000   51.0080   49.9580 O.2     2  ASN2       -0.2715
      9  CB        -3.0480   52.4980   47.8400 C.3     2  ASN2        0.1195
     10  CG        -3.1650   51.2730   46.9490 C.2     2  ASN2        0.2630
     11  OD1       -2.1990   50.5260   46.7940 O.2     2  ASN2       -0.2716
     12  ND2       -4.3380   51.0590   46.3630 N.am    2  ASN2       -0.0877
     13  N         -0.0970   51.2630   49.6710 N.am    3  MET3       -0.1977
     14  CA         0.2070   50.2250   50.6510 C.3     3  MET3        0.1605
     15  C          1.4930   50.5170   51.4040 C.2     3  MET3        0.2287
     16  O          2.3230   51.2920   50.9370 O.2     3  MET3       -0.2864
     17  CB         0.3050   48.8660   49.9660 C.3     3  MET3        0.0413
     18  CG         1.2870   48.8100   48.8220 C.3     3  MET3        0.0598
     19  SD         1.1460   47.2290   47.9850 S.3     3  MET3       -0.1393
     20  CE        -0.5020   47.3590   47.3100 C.3     3  MET3        0.0692
     21  N          4.3870   45.8220   50.4450 N.3     8  VAL8       -0.1245
     22  CA         5.2650   45.7720   49.2800 C.3     8  VAL8        0.1561
     23  C          6.1840   44.5530   49.3740 C.2     8  VAL8        0.2260
     24  O          6.4880   43.9230   48.3710 O.2     8  VAL8       -0.2867
     25  CB         6.0970   47.0720   49.1610 C.3     8  VAL8        0.0252
     26  CG1        7.0860   46.9690   47.9970 C.3     8  VAL8        0.0019
     27  CG2        5.1570   48.2590   48.9410 C.3     8  VAL8        0.0019
     28  N          4.2650   41.4580   48.2950 N.3    11  LEU11      -0.1245
     29  CA         4.0570   41.4640   46.8480 C.3    11  LEU11       0.1561
     30  C          5.3380   41.0720   46.1370 C.2    11  LEU11       0.2260
     31  O          5.3130   40.4070   45.1050 O.2    11  LEU11      -0.2867
     32  CB         3.6170   42.8490   46.3670 C.3    11  LEU11       0.0270
     33  CG         2.2380   43.3380   46.8220 C.3    11  LEU11       0.0019
     34  CD1        1.9550   44.6810   46.1770 C.3    11  LEU11       0.0001
     35  CD2        1.1610   42.3350   46.4280 C.3    11  LEU11       0.0001
     36  N          0.7020   37.8380   39.3040 N.3    19  TRP19      -0.1241
     37  CA         0.8850   39.1030   38.5940 C.3    19  TRP19       0.1605
     38  C          0.4300   39.0210   37.1300 C.2    19  TRP19       0.2264
     39  O         -0.1990   39.9460   36.6090 O.2    19  TRP19      -0.2867
     40  CB         2.3590   39.5250   38.6030 C.3    19  TRP19       0.0550
     41  CG         2.9270   39.8430   39.9480 C.ar   19  TRP19       0.0003
     42  CD1        3.6010   38.9940   40.7850 C.ar   19  TRP19       0.0946
     43  CD2        2.8770   41.1070   40.6130 C.ar   19  TRP19       0.0152
     44  NE1        3.9760   39.6590   41.9290 N.ar   19  TRP19      -0.2442
     45  CE2        3.5430   40.9570   41.8510 C.ar   19  TRP19       0.0810
     46  CE3        2.3310   42.3560   40.2840 C.ar   19  TRP19       0.0012
     47  CZ2        3.6800   42.0100   42.7610 C.ar   19  TRP19       0.0191
     48  CZ3        2.4670   43.4080   41.1960 C.ar   19  TRP19       0.0001
     49  CH2        3.1360   43.2230   42.4170 C.ar   19  TRP19       0.0015
     50  N         -0.6990   51.6160   33.1170 N.3    37  PHE37      -0.1241
     51  CA         0.3310   51.1090   34.0290 C.3    37  PHE37       0.1605
     52  C          0.0990   51.7460   35.4110 C.2    37  PHE37       0.2264
     53  O          0.1350   51.0650   36.4390 O.2    37  PHE37      -0.2867
     54  CB         1.7190   51.4700   33.4590 C.3    37  PHE37       0.0534
     55  CG         2.8810   51.1640   34.3800 C.ar   37  PHE37      -0.0203
     56  CD1        3.2860   52.0800   35.3470 C.ar   37  PHE37      -0.0042
     57  CD2        3.5930   49.9750   34.2510 C.ar   37  PHE37      -0.0042
     58  CE1        4.3850   51.8200   36.1710 C.ar   37  PHE37      -0.0003
     59  CE2        4.6950   49.7030   35.0710 C.ar   37  PHE37      -0.0003
     60  CZ         5.0900   50.6300   36.0320 C.ar   37  PHE37      -0.0000
     61  N         -1.1320   49.5970   38.7730 N.3    41  PHE41      -0.1241
     62  CA        -0.3060   49.5510   39.9730 C.3    41  PHE41       0.1605
     63  C         -0.6480   50.5840   41.0500 C.2    41  PHE41       0.2264
     64  O          0.0410   50.6720   42.0660 O.2    41  PHE41      -0.2867
     65  CB         1.1670   49.6780   39.5780 C.3    41  PHE41       0.0534
     66  CG         1.6980   48.4820   38.8320 C.ar   41  PHE41      -0.0203
     67  CD1        1.8260   47.2490   39.4680 C.ar   41  PHE41      -0.0042
     68  CD2        2.0620   48.5840   37.4920 C.ar   41  PHE41      -0.0042
     69  CE1        2.3080   46.1380   38.7850 C.ar   41  PHE41      -0.0003
     70  CE2        2.5460   47.4790   36.7980 C.ar   41  PHE41      -0.0003
     71  CZ         2.6700   46.2540   37.4420 C.ar   41  PHE41      -0.0000
     72  N         -0.5790   53.9220   40.7940 N.3    43  LEU43      -0.1245
     73  CA         0.4460   54.9620   40.7540 C.3    43  LEU43       0.1561
     74  C          0.0170   56.3020   40.1600 C.2    43  LEU43       0.2260
     75  O          0.8560   57.0500   39.6510 O.2    43  LEU43      -0.2867
     76  CB         1.6630   54.4420   39.9790 C.3    43  LEU43       0.0270
     77  CG         2.6880   53.5450   40.6870 C.3    43  LEU43       0.0019
     78  CD1        2.0130   52.5950   41.6410 C.3    43  LEU43       0.0001
     79  CD2        3.4940   52.7900   39.6390 C.3    43  LEU43       0.0001
     80  N         10.5280   54.9470   34.5770 N.3    57  MET57      -0.1245
     81  CA        10.5880   53.5350   34.9390 C.3    57  MET57       0.1570
     82  C          9.8550   52.7670   33.8310 C.2    57  MET57       0.2261
     83  O         10.3380   51.7470   33.3330 O.2    57  MET57      -0.2867
     84  CB         9.8860   53.3100   36.2790 C.3    57  MET57       0.0387
     85  CG        10.1060   51.9370   36.8680 C.3    57  MET57       0.0595
     86  SD        11.2900   51.9910   38.2330 S.3    57  MET57      -0.1393
     87  CE        12.7130   52.7360   37.4280 C.3    57  MET57       0.0692
     88  N         11.3040   49.8670   31.1500 N.3    61  PHE61      -0.1241
     89  CA        10.7630   48.5290   30.9270 C.3    61  PHE61       0.1605
     90  C         10.1330   48.3590   29.5350 C.2    61  PHE61       0.2264
     91  O          9.8370   47.2350   29.1050 O.2    61  PHE61      -0.2867
     92  CB         9.7530   48.1920   32.0290 C.3    61  PHE61       0.0534
     93  CG        10.3700   48.1010   33.4050 C.ar   61  PHE61      -0.0203
     94  CD1        9.7480   48.6850   34.5040 C.ar   61  PHE61      -0.0042
     95  CD2       11.5750   47.4280   33.5980 C.ar   61  PHE61      -0.0042
     96  CE1       10.3190   48.6030   35.7840 C.ar   61  PHE61      -0.0003
     97  CE2       12.1530   47.3390   34.8690 C.ar   61  PHE61      -0.0003
     98  CZ        11.5210   47.9300   35.9630 C.ar   61  PHE61      -0.0000
     99  N          3.9470   48.3720   27.3170 N.3    69  ILE69      -0.1245
    100  CA         4.7080   47.3150   27.9750 C.3    69  ILE69       0.1561
    101  C          3.8470   46.1060   27.6630 C.2    69  ILE69       0.2260
    102  O          2.7450   45.9770   28.1940 O.2    69  ILE69      -0.2867
    103  CB         4.8080   47.5140   29.5050 C.3    69  ILE69       0.0252
    104  CG1        5.8340   48.6100   29.8130 C.3    69  ILE69       0.0019
    105  CG2        5.2100   46.1990   30.1810 C.3    69  ILE69       0.0019
    106  CD1        6.0230   48.8890   31.3000 C.3    69  ILE69       0.0001
    107  N          6.5310   42.6600   30.2460 N.3    74  TYR74      -0.1241
    108  CA         5.9430   42.6270   31.5780 C.3    74  TYR74       0.1605
    109  C          6.6480   41.5770   32.4510 C.2    74  TYR74       0.2264
    110  O          7.1190   41.8890   33.5440 O.2    74  TYR74      -0.2867
    111  CB         4.4500   42.3040   31.4690 C.3    74  TYR74       0.0534
    112  CG         3.6700   42.3250   32.7730 C.ar   74  TYR74      -0.0201
    113  CD1        3.2770   43.5290   33.3610 C.ar   74  TYR74      -0.0009
    114  CD2        3.2760   41.1350   33.3840 C.ar   74  TYR74      -0.0009
    115  CE1        2.4970   43.5420   34.5310 C.ar   74  TYR74       0.0417
    116  CE2        2.5040   41.1350   34.5440 C.ar   74  TYR74       0.0417
    117  CZ         2.1160   42.3390   35.1100 C.ar   74  TYR74       0.1957
    118  OH         1.3380   42.3230   36.2430 O.3    74  TYR74      -0.2866
    119  N         10.3200   42.4410   33.0180 N.3    77  ALA77      -0.1231
    120  CA        10.4460   43.5140   33.9940 C.3    77  ALA77       0.1694
    121  C         10.2790   42.9590   35.4090 C.2    77  ALA77       0.2591
    122  O         11.0580   43.2860   36.3070 O.2    77  ALA77      -0.2718
    123  CB         9.4100   44.5950   33.7210 C.3    77  ALA77       0.0304
    124  N          9.2660   42.1160   35.5990 N.am   78  LEU78      -0.1980
    125  CA         9.0060   41.5190   36.9040 C.3    78  LEU78       0.1596
    126  C         10.1430   40.5910   37.3400 C.2    78  LEU78       0.2287
    127  O         10.3710   40.4050   38.5310 O.2    78  LEU78      -0.2864
    128  CB         7.6620   40.7750   36.8890 C.3    78  LEU78       0.0297
    129  CG         6.4430   41.7150   36.8690 C.3    78  LEU78       0.0022
    130  CD1        5.1400   40.9240   36.7900 C.3    78  LEU78       0.0001
    131  CD2        6.4600   42.5770   38.1270 C.3    78  LEU78       0.0001
    132  N         12.3640   43.1300   39.0820 N.3    81  VAL81      -0.1245
    133  CA        11.7360   43.7820   40.2310 C.3    81  VAL81       0.1561
    134  C         11.3550   42.8680   41.3970 C.2    81  VAL81       0.2260
    135  O         11.5070   43.2410   42.5560 O.2    81  VAL81      -0.2867
    136  CB        10.4720   44.5730   39.7780 C.3    81  VAL81       0.0252
    137  CG1        9.8300   45.2640   40.9710 C.3    81  VAL81       0.0019
    138  CG2       10.8600   45.6090   38.7250 C.3    81  VAL81       0.0019
    139  N         11.4370   45.7530   43.9950 N.3   173  LEU173     -0.1245
    140  CA        10.1050   46.3130   44.2090 C.3   173  LEU173      0.1561
    141  C         10.0620   47.2260   45.4360 C.2   173  LEU173      0.2260
    142  O          9.5360   48.3420   45.3710 O.2   173  LEU173     -0.2867
    143  CB         9.0670   45.1920   44.3710 C.3   173  LEU173      0.0270
    144  CG         7.6030   45.6490   44.4230 C.3   173  LEU173      0.0019
    145  CD1        7.2120   46.3080   43.0980 C.3   173  LEU173      0.0001
    146  CD2        6.7020   44.4550   44.7020 C.3   173  LEU173      0.0001
    147  N         11.7290   50.5900   44.8070 N.3   176  ILE176     -0.1231
    148  CA        10.9530   51.4260   43.8980 C.3   176  ILE176      0.1692
    149  C          9.8490   52.1680   44.6440 C.2   176  ILE176      0.2591
    150  O          9.7180   53.3890   44.5300 O.2   176  ILE176     -0.2718
    151  CB        10.2910   50.5800   42.7880 C.3   176  ILE176      0.0266
    152  CG1       11.3650   49.9310   41.9140 C.3   176  ILE176      0.0019
    153  CG2        9.3460   51.4500   41.9550 C.3   176  ILE176      0.0020
    154  CD1       10.8140   49.0830   40.7800 C.3   176  ILE176      0.0001
    155  N          9.0470   51.4270   45.4040 N.am  177  VAL177     -0.1980
    156  CA         7.9470   52.0330   46.1470 C.3   177  VAL177      0.1595
    157  C          8.4770   53.0020   47.1930 C.2   177  VAL177      0.2287
    158  O          7.9120   54.0790   47.3910 O.2   177  VAL177     -0.2864
    159  CB         7.0710   50.9580   46.8420 C.3   177  VAL177      0.0276
    160  CG1        5.9160   51.6250   47.5890 C.3   177  VAL177      0.0022
    161  CG2        6.5260   49.9880   45.8080 C.3   177  VAL177      0.0022
    162  N          9.2270   56.0060   45.3730 N.3   180  ILE180     -0.1245
    163  CA         8.0290   56.7150   44.9440 C.3   180  ILE180      0.1561
    164  C          7.4880   57.6100   46.0550 C.2   180  ILE180      0.2260
    165  O          7.6040   58.8310   45.9790 O.2   180  ILE180     -0.2867
    166  CB         6.9330   55.7290   44.4900 C.3   180  ILE180      0.0252
    167  CG1        7.4290   54.9340   43.2800 C.3   180  ILE180      0.0019
    168  CG2        5.6620   56.4880   44.1280 C.3   180  ILE180      0.0019
    169  CD1        6.4460   53.9090   42.7680 C.3   180  ILE180      0.0001
@<TRIPOS>BOND
     1    99   100    1
     2   101   100    1
     3   101   102    2
     4   100   103    1
     5    91    90    2
     6   103   104    1
     7   103   105    1
     8    90    89    1
     9   104   106    1
    10   107   108    1
    11    89    88    1
    12    89    92    1
    13   111   108    1
    14   111   112    1
    15   108   109    1
    16    92    93    1
    17   109   110    2
    18   112   113   ar
    19   112   114   ar
    20   119   120    1
    21    50    51    1
    22    83    82    2
    23   113   115   ar
    24   114   116   ar
    25    93    95   ar
    26    93    94   ar
    27    54    51    1
    28    54    55    1
    29    95    97   ar
    30   123   120    1
    31    82    81    1
    32   120   121    1
    33    51    52    1
    34    57    55   ar
    35    57    59   ar
    36    55    56   ar
    37    94    96   ar
    38   115   117   ar
    39   116   117   ar
    40    80    81    1
    41    97    98   ar
    42    81    84    1
    43    59    60   ar
    44   117   118    1
    45    56    58   ar
    46   121   124   am
    47   121   122    2
    48    52    53    2
    49   124   125    1
    50    96    98   ar
    51    60    58   ar
    52    84    85    1
    53    39    38    2
    54   130   129    1
    55    70    71   ar
    56    70    68   ar
    57    85    86    1
    58   129   128    1
    59   129   131    1
    60   128   125    1
    61   125   126    1
    62    38    37    1
    63   126   127    2
    64    87    86    1
    65    71    69   ar
    66    68    66   ar
    67    37    40    1
    68    37    36    1
    69    40    41    1
    70   138   136    1
    71    61    62    1
    72    69    67   ar
    73    66    67   ar
    74    66    65    1
    75   132   133    1
    76    65    62    1
    77    79    77    1
    78    75    74    2
    79   136   133    1
    80   136   137    1
    81    41    43   ar
    82    41    42   ar
    83    62    63    1
    84    76    77    1
    85    76    73    1
    86    74    73    1
    87   133   134    1
    88    46    43   ar
    89    46    48   ar
    90    43    45   ar
    91    77    78    1
    92    73    72    1
    93   154   152    1
    94    42    44   ar
    95    63    64    2
    96    48    49   ar
    97   134   135    2
    98    45    44   ar
    99    45    47   ar
   100   152   151    1
   101   153   151    1
   102    49    47   ar
   103   169   167    1
   104   151   148    1
   105   145   144    1
   106   167   166    1
   107   148   149    1
   108   148   147    1
   109   139   140    1
   110   168   166    1
   111   140   143    1
   112   140   141    1
   113   143   144    1
   114   144   146    1
   115   166   163    1
   116   150   149    2
   117   149   155   am
   118   163   162    1
   119   163   164    1
   120    31    30    2
   121   142   141    2
   122   155   156    1
   123     2     1    1
   124     2     3    1
   125   161   159    1
   126   165   164    2
   127    30    29    1
   128   156   159    1
   129   156   157    1
   130    34    33    1
   131    12    10   am
   132    32    33    1
   133    32    29    1
   134    35    33    1
   135    11    10    2
   136   159   160    1
   137    29    28    1
   138     3     5   am
   139     3     4    2
   140    10     9    1
   141   157   158    2
   142     5     6    1
   143    20    19    1
   144     9     6    1
   145    19    18    1
   146    26    25    1
   147    24    23    2
   148     6     7    1
   149    18    17    1
   150    27    25    1
   151    25    22    1
   152    22    23    1
   153    22    21    1
   154     7    13   am
   155     7     8    2
   156    13    14    1
   157    17    14    1
   158    14    15    1
   159    16    15    2
