@<TRIPOS>MOLECULE
tmp/2r2kB00.pdb
 76 74 0 0 0
SMALL
GASTEIGER

@<TRIPOS>ATOM
      1  N          7.4750   35.2420   13.3030 N.3    37  HIS37      -0.1226
      2  CA         8.8300   34.8960   12.8880 C.3    37  HIS37       0.1752
      3  C          9.5560   36.1460   12.4080 C.2    37  HIS37       0.2597
      4  O          8.9760   37.0040   11.7530 O.2    37  HIS37      -0.2718
      5  CB         8.8540   33.7510   11.8430 C.3    37  HIS37       0.0759
      6  CG         8.5370   34.1470   10.4280 C.ar   37  HIS37       0.0818
      7  ND1        8.9960   33.4220    9.3460 N.ar   37  HIS37      -0.2268
      8  CD2        7.7820   35.1450    9.9140 C.ar   37  HIS37       0.1154
      9  CE1        8.5420   33.9600    8.2300 C.ar   37  HIS37       0.1986
     10  NE2        7.8020   35.0080    8.5450 N.ar   37  HIS37      -0.2212
     11  N         10.8220   36.2790   12.7740 N.am   38  THR38      -0.1939
     12  CA        11.5780   37.4680   12.3930 C.3    38  THR38       0.2028
     13  C         11.7900   37.6010   10.8950 C.2    38  THR38       0.2642
     14  O         12.0760   38.6970   10.4020 O.2    38  THR38      -0.2714
     15  CB        12.9610   37.4960   13.0600 C.3    38  THR38       0.1808
     16  OG1       13.7310   36.3660   12.6110 O.3    38  THR38      -0.2208
     17  CG2       12.8180   37.4960   14.5880 C.3    38  THR38       0.0379
     18  N         11.6440   36.4830   10.1850 N.am   39  ALA39      -0.1977
     19  CA        11.8390   36.4100    8.7300 C.3    39  ALA39       0.1597
     20  C         13.2580   36.8310    8.3940 C.2    39  ALA39       0.2287
     21  O         13.5630   37.1870    7.2580 O.2    39  ALA39      -0.2864
     22  CB        10.8320   37.2980    7.9820 C.3    39  ALA39       0.0319
     23  N         13.0660   32.2500    8.9430 N.3   110  ASN110     -0.1240
     24  CA        11.9770   32.4520    7.9820 C.3   110  ASN110      0.1653
     25  C         11.4190   31.0550    7.7440 C.2   110  ASN110      0.2266
     26  O         12.0570   30.2270    7.0810 O.2   110  ASN110     -0.2867
     27  CB        12.5020   33.0520    6.6760 C.3   110  ASN110      0.1155
     28  CG        11.4250   33.1740    5.6160 C.2   110  ASN110      0.2627
     29  OD1       10.2700   32.8100    5.8400 O.2   110  ASN110     -0.2716
     30  ND2       11.8020   33.6870    4.4510 N.am  110  ASN110     -0.0877
     31  N          8.7140   29.6500    5.9520 N.3   112  MET112     -0.1245
     32  CA         7.7920   29.3990    4.8570 C.3   112  MET112      0.1570
     33  C          8.0770   28.0020    4.3020 C.2   112  MET112      0.2261
     34  O          7.2000   27.1400    4.2690 O.2   112  MET112     -0.2867
     35  CB         7.9940   30.4450    3.7580 C.3   112  MET112      0.0387
     36  CG         7.2220   31.7450    3.9420 C.3   112  MET112      0.0595
     37  SD         5.4960   31.5890    3.4190 S.3   112  MET112     -0.1393
     38  CE         4.6610   32.2970    4.7990 C.3   112  MET112      0.0692
     39  N          0.2560   34.9020   13.8550 N.3   146  HIS146     -0.1241
     40  CA         0.4300   36.3060   13.5090 C.3   146  HIS146      0.1621
     41  C         -0.4980   36.6770   12.3480 C.2   146  HIS146      0.2264
     42  O         -0.9480   37.8200   12.2370 O.2   146  HIS146     -0.2867
     43  CB         1.8860   36.5870   13.1310 C.3   146  HIS146      0.0745
     44  CG         2.2270   38.0440   13.0940 C.ar  146  HIS146      0.0817
     45  ND1        3.2930   38.5410   12.3800 N.ar  146  HIS146     -0.2268
     46  CD2        1.6430   39.1100   13.6890 C.ar  146  HIS146      0.1154
     47  CE1        3.3500   39.8520   12.5350 C.ar  146  HIS146      0.1986
     48  NE2        2.3590   40.2220   13.3250 N.ar  146  HIS146     -0.2212
     49  N         -2.5430   41.3310    8.6680 N.3   151  PRO151     -0.2102
     50  CA        -2.4020   40.8650    7.2850 C.3   151  PRO151      0.1504
     51  C         -0.9290   40.6420    6.9790 C.2   151  PRO151      0.2576
     52  O         -0.2740   41.4640    6.3350 O.2   151  PRO151     -0.2718
     53  CB        -3.0270   41.9960    6.4770 C.3   151  PRO151      0.0282
     54  CG        -2.7270   43.2170    7.3100 C.3   151  PRO151      0.0208
     55  CD        -2.9390   42.7510    8.7270 C.3   151  PRO151      0.0893
     56  N         -0.4180   39.5110    7.4550 N.am  152  THR152     -0.1939
     57  CA         0.9910   39.1560    7.2880 C.3   152  THR152      0.2028
     58  C          1.2490   37.6820    6.9390 C.2   152  THR152      0.2642
     59  O          0.4450   36.8000    7.2420 O.2   152  THR152     -0.2714
     60  CB         1.7960   39.5420    8.5740 C.3   152  THR152      0.1808
     61  OG1        3.1500   39.0860    8.4590 O.3   152  THR152     -0.2208
     62  CG2        1.1480   38.9430    9.8240 C.3   152  THR152      0.0379
     63  N          2.3850   37.4330    6.2970 N.am  153  LEU153     -0.1963
     64  CA         2.7730   36.0830    5.8980 C.3   153  LEU153      0.1728
     65  C          3.3190   35.3100    7.1110 C.2   153  LEU153      0.2616
     66  O          3.2240   34.0850    7.1780 O.2   153  LEU153     -0.2715
     67  CB         3.8360   36.1590    4.7930 C.3   153  LEU153      0.0311
     68  CG         3.7590   35.1730    3.6300 C.3   153  LEU153      0.0022
     69  CD1        2.5620   35.5000    2.7470 C.3   153  LEU153      0.0001
     70  CD2        5.0430   35.2460    2.8290 C.3   153  LEU153      0.0001
     71  N          3.8960   36.0470    8.0590 N.am  154  SER154     -0.1950
     72  CA         4.4480   35.4930    9.2900 C.3   154  SER154      0.1924
     73  C          3.3650   34.6960   10.0190 C.2   154  SER154      0.2314
     74  O          2.1940   35.0540    9.9490 O.2   154  SER154     -0.2863
     75  CB         4.9300   36.6410   10.1690 C.3   154  SER154      0.2116
     76  OG         4.8410   36.3020   11.5360 O.3   154  SER154     -0.2180
@<TRIPOS>BOND
     1    69    68    1
     2    70    68    1
     3    37    36    1
     4    37    38    1
     5    68    67    1
     6    35    36    1
     7    35    32    1
     8    34    33    2
     9    33    32    1
    10    30    28   am
    11    67    64    1
    12    32    31    1
    13    28    29    2
    14    28    27    1
    15    64    63    1
    16    64    65    1
    17    63    58   am
    18    52    51    2
    19    53    50    1
    20    53    54    1
    21    27    24    1
    22    58    59    2
    23    58    57    1
    24    51    50    1
    25    51    56   am
    26    26    25    2
    27    65    66    2
    28    65    71   am
    29    21    20    2
    30    50    49    1
    31    57    56    1
    32    57    60    1
    33    54    55    1
    34    25    24    1
    35    24    23    1
    36    22    19    1
    37    71    72    1
    38     9    10   ar
    39     9     7   ar
    40    20    19    1
    41    61    60    1
    42    10     8   ar
    43    60    62    1
    44    49    55    1
    45    19    18    1
    46    72    73    1
    47    72    75    1
    48     7     6   ar
    49     8     6   ar
    50    74    73    2
    51    75    76    1
    52    18    13   am
    53    14    13    2
    54     6     5    1
    55    13    12    1
    56     4     3    2
    57     5     2    1
    58    42    41    2
    59    41    40    1
    60    45    47   ar
    61    45    44   ar
    62    12    11    1
    63    12    15    1
    64     3    11   am
    65     3     2    1
    66    47    48   ar
    67    16    15    1
    68     2     1    1
    69    15    17    1
    70    44    43    1
    71    44    46   ar
    72    43    40    1
    73    48    46   ar
    74    40    39    1
