@<TRIPOS>MOLECULE
tmp/2r2kA00.pdb
 80 78 0 0 0
SMALL
GASTEIGER

@<TRIPOS>ATOM
      1  N         31.3760   14.2850   33.8830 N.3    38  THR38      -0.1203
      2  CA        31.7320   13.1040   33.1070 C.3    38  THR38       0.1994
      3  C         33.2370   13.0210   32.8820 C.2    38  THR38       0.2618
      4  O         33.7450   12.0010   32.4320 O.2    38  THR38      -0.2717
      5  CB        31.0120   13.0990   31.7290 C.3    38  THR38       0.1784
      6  OG1       31.3160   14.3080   31.0110 O.3    38  THR38      -0.2211
      7  CG2       29.4990   12.9700   31.9210 C.3    38  THR38       0.0376
      8  N         33.9390   14.1020   33.2020 N.am   39  ALA39      -0.1965
      9  CA        35.3890   14.1930   33.0360 C.3    39  ALA39       0.1728
     10  C         35.8400   13.8650   31.6220 C.2    39  ALA39       0.2617
     11  O         36.9530   13.3740   31.4200 O.2    39  ALA39      -0.2715
     12  CB        36.0950   13.2850   34.0160 C.3    39  ALA39       0.0334
     13  N         34.9690   14.1330   30.6510 N.am   40  GLY40      -0.1940
     14  CA        35.2920   13.8890   29.2560 C.3    40  GLY40       0.2014
     15  C         35.3240   15.2050   28.5020 C.2    40  GLY40       0.2639
     16  O         35.5780   16.2550   29.0950 O.2    40  GLY40      -0.2714
     17  N         35.0440   15.1580   27.2020 N.am   41  SER41      -0.1949
     18  CA        35.0560   16.3580   26.3630 C.3    41  SER41       0.1924
     19  C         33.7870   17.1890   26.4670 C.2    41  SER41       0.2314
     20  O         32.6910   16.6430   26.5670 O.2    41  SER41      -0.2863
     21  CB        35.2550   15.9700   24.8970 C.3    41  SER41       0.2116
     22  OG        36.4900   15.3050   24.6980 O.3    41  SER41      -0.2180
     23  N         27.9610   13.8040   22.2050 N.3    52  GLN52      -0.1245
     24  CA        28.6890   13.5540   23.4540 C.3    52  GLN52       0.1566
     25  C         27.8350   12.7210   24.4020 C.2    52  GLN52       0.2260
     26  O         28.3410   12.0040   25.2710 O.2    52  GLN52      -0.2867
     27  CB        29.0600   14.8730   24.1400 C.3    52  GLN52       0.0367
     28  CG        30.5340   15.2220   24.0540 C.3    52  GLN52       0.0905
     29  CD        31.4200   14.0850   24.5150 C.2    52  GLN52       0.2608
     30  OE1       31.2740   13.5850   25.6330 O.2    52  GLN52      -0.2717
     31  NE2       32.3470   13.6680   23.6570 N.am   52  GLN52      -0.0878
     32  N         28.3140    8.9730   23.4240 N.3    55  ASN55      -0.1225
     33  CA        29.6130    8.4700   23.8480 C.3    55  ASN55       0.1785
     34  C         29.6190    8.0130   25.2970 C.2    55  ASN55       0.2597
     35  O         30.0520    6.9090   25.5960 O.2    55  ASN55      -0.2718
     36  CB        30.6920    9.5400   23.6460 C.3    55  ASN55       0.1169
     37  CG        30.8540    9.9360   22.1940 C.2    55  ASN55       0.2627
     38  OD1       31.0770    9.0890   21.3300 O.2    55  ASN55      -0.2716
     39  ND2       30.7460   11.2310   21.9180 N.am   55  ASN55      -0.0877
     40  N         29.1530    8.8680   26.1970 N.am   56  VAL56      -0.1980
     41  CA        29.1160    8.5230   27.6120 C.3    56  VAL56       0.1595
     42  C         28.2200    7.3060   27.7890 C.2    56  VAL56       0.2287
     43  O         28.5750    6.3650   28.5100 O.2    56  VAL56      -0.2864
     44  CB        28.5700    9.6970   28.4600 C.3    56  VAL56       0.0276
     45  CG1       28.6120    9.3590   29.9450 C.3    56  VAL56       0.0022
     46  CG2       29.3800   10.9420   28.1760 C.3    56  VAL56       0.0022
     47  N         29.9120    4.0490   26.3530 N.3    59  TYR59      -0.1227
     48  CA        31.0300    3.5740   27.1490 C.3    59  TYR59       0.1736
     49  C         30.4860    2.8450   28.3640 C.2    59  TYR59       0.2595
     50  O         31.1000    1.9040   28.8590 O.2    59  TYR59      -0.2718
     51  CB        31.8990    4.7470   27.5870 C.3    59  TYR59       0.0548
     52  CG        32.8690    4.4090   28.6880 C.ar   59  TYR59      -0.0200
     53  CD1       33.9790    3.5880   28.4550 C.ar   59  TYR59      -0.0009
     54  CD2       32.6590    4.8910   29.9830 C.ar   59  TYR59      -0.0009
     55  CE1       34.8470    3.2550   29.4890 C.ar   59  TYR59       0.0417
     56  CE2       33.5190    4.5640   31.0200 C.ar   59  TYR59       0.0417
     57  CZ        34.6080    3.7430   30.7690 C.ar   59  TYR59       0.1957
     58  OH        35.4120    3.3760   31.8170 O.3    59  TYR59      -0.2866
     59  N         29.3220    3.2790   28.8360 N.am   60  HIS60      -0.1975
     60  CA        28.6870    2.6660   30.0030 C.3    60  HIS60       0.1656
     61  C         27.9800    1.3710   29.6610 C.2    60  HIS60       0.2291
     62  O         27.8930    0.4880   30.4870 O.2    60  HIS60      -0.2864
     63  CB        27.6810    3.6380   30.6460 C.3    60  HIS60       0.0771
     64  CG        28.3210    4.7650   31.4030 C.ar   60  HIS60       0.0820
     65  ND1       27.6120    5.5880   32.2530 N.ar   60  HIS60      -0.2267
     66  CD2       29.6070    5.1840   31.4600 C.ar   60  HIS60       0.1154
     67  CE1       28.4360    6.4610   32.8040 C.ar   60  HIS60       0.1986
     68  NE2       29.6520    6.2380   32.3400 N.ar   60  HIS60      -0.2212
     69  N         23.9700    8.0980   34.6600 N.3    71  TYR71      -0.1241
     70  CA        23.2640    9.2470   35.2120 C.3    71  TYR71       0.1605
     71  C         21.8070    9.3790   34.7880 C.2    71  TYR71       0.2264
     72  O         21.4210    8.9620   33.6960 O.2    71  TYR71      -0.2867
     73  CB        24.0220   10.5270   34.8410 C.3    71  TYR71       0.0534
     74  CG        25.5320   10.3880   34.8970 C.ar   71  TYR71      -0.0201
     75  CD1       26.2710   10.0970   33.7520 C.ar   71  TYR71      -0.0009
     76  CD2       26.2190   10.5380   36.1000 C.ar   71  TYR71      -0.0009
     77  CE1       27.6610    9.9620   33.8030 C.ar   71  TYR71       0.0417
     78  CE2       27.6050   10.4030   36.1650 C.ar   71  TYR71       0.0417
     79  CZ        28.3210   10.1170   35.0140 C.ar   71  TYR71       0.1957
     80  OH        29.6910    9.9890   35.0800 O.3    71  TYR71      -0.2866
@<TRIPOS>BOND
     1    38    37    2
     2    39    37   am
     3    37    36    1
     4    23    24    1
     5    32    33    1
     6    24    27    1
     7    24    25    1
     8    36    33    1
     9    31    29   am
    10    33    34    1
    11    28    27    1
    12    28    29    1
    13    25    26    2
    14    29    30    2
    15    22    21    1
    16    21    18    1
    17    34    35    2
    18    34    40   am
    19    40    41    1
    20    47    48    1
    21    18    19    1
    22    18    17    1
    23    19    20    2
    24    48    51    1
    25    48    49    1
    26    17    15   am
    27    51    52    1
    28    41    42    1
    29    41    44    1
    30    42    43    2
    31    46    44    1
    32    49    59   am
    33    49    50    2
    34    53    52   ar
    35    53    55   ar
    36    44    45    1
    37    15    16    2
    38    15    14    1
    39    52    54   ar
    40    59    60    1
    41    14    13    1
    42    55    57   ar
    43    61    60    1
    44    61    62    2
    45    54    56   ar
    46    60    63    1
    47    63    64    1
    48    13    10   am
    49    57    56   ar
    50    57    58    1
    51     6     5    1
    52    64    66   ar
    53    64    65   ar
    54    11    10    2
    55    66    68   ar
    56    10     9    1
    57     5     7    1
    58     5     2    1
    59    65    67   ar
    60    68    67   ar
    61     4     3    2
    62     3     2    1
    63     3     8   am
    64     9     8    1
    65     9    12    1
    66     2     1    1
    67    72    71    2
    68    75    77   ar
    69    75    74   ar
    70    77    79   ar
    71    69    70    1
    72    71    70    1
    73    73    74    1
    74    73    70    1
    75    74    76   ar
    76    79    80    1
    77    79    78   ar
    78    76    78   ar
