@<TRIPOS>MOLECULE
tmp/2r2lB01.pdb
 200 199 0 0 0
SMALL
GASTEIGER

@<TRIPOS>ATOM
      1  N        182.8950  140.3340   34.1300 N.3    71  TYR71      -0.1241
      2  CA       182.4180  139.0840   33.5580 C.3    71  TYR71       0.1605
      3  C        182.1680  139.1440   32.0600 C.2    71  TYR71       0.2264
      4  O        181.6000  138.2170   31.4740 O.2    71  TYR71      -0.2867
      5  CB       181.1660  138.5930   34.2970 C.3    71  TYR71       0.0534
      6  CG       181.5230  137.8640   35.5730 C.ar   71  TYR71      -0.0201
      7  CD1      181.7980  138.5590   36.7440 C.ar   71  TYR71      -0.0009
      8  CD2      181.6900  136.4850   35.5790 C.ar   71  TYR71      -0.0009
      9  CE1      182.2410  137.9030   37.8770 C.ar   71  TYR71       0.0417
     10  CE2      182.1350  135.8180   36.7090 C.ar   71  TYR71       0.0417
     11  CZ       182.4100  136.5320   37.8540 C.ar   71  TYR71       0.1957
     12  OH       182.8780  135.8740   38.9710 O.3    71  TYR71      -0.2866
     13  N        182.9450  136.2210   30.0870 N.3    74  LEU74      -0.1245
     14  CA       182.0720  135.0570   30.1710 C.3    74  LEU74       0.1561
     15  C        180.7050  135.3410   29.5460 C.2    74  LEU74       0.2260
     16  O        179.7130  134.6650   29.8350 O.2    74  LEU74      -0.2867
     17  CB       181.9240  134.6250   31.6350 C.3    74  LEU74       0.0270
     18  CG       183.1680  133.9070   32.1800 C.3    74  LEU74       0.0019
     19  CD1      183.1570  133.8960   33.6940 C.3    74  LEU74       0.0001
     20  CD2      183.2280  132.4830   31.6270 C.3    74  LEU74       0.0001
     21  N        179.8630  134.6650   26.7530 N.3    76  ALA76      -0.1231
     22  CA       179.5290  133.5680   25.8590 C.3    76  ALA76       0.1694
     23  C        179.3660  132.2860   26.6580 C.2    76  ALA76       0.2592
     24  O        179.3930  131.1900   26.1000 O.2    76  ALA76      -0.2718
     25  CB       180.6110  133.3950   24.8110 C.3    76  ALA76       0.0304
     26  N        179.1870  132.4320   27.9660 N.am   77  SER77      -0.1952
     27  CA       179.0240  131.2870   28.8600 C.3    77  SER77       0.1924
     28  C        177.9910  131.5730   29.9380 C.2    77  SER77       0.2314
     29  O        178.1360  131.1120   31.0640 O.2    77  SER77      -0.2863
     30  CB       180.3510  130.9700   29.5540 C.3    77  SER77       0.2116
     31  OG       181.3830  130.7510   28.6160 O.3    77  SER77      -0.2180
     32  N        176.4510  128.8160   31.8660 N.3    80  TRP80      -0.1241
     33  CA       177.3870  128.2750   32.8540 C.3    80  TRP80       0.1605
     34  C        177.2700  129.0640   34.1470 C.2    80  TRP80       0.2264
     35  O        177.3200  128.5010   35.2420 O.2    80  TRP80      -0.2867
     36  CB       178.8350  128.3550   32.3670 C.3    80  TRP80       0.0550
     37  CG       179.2560  127.2130   31.4960 C.ar   80  TRP80       0.0003
     38  CD1      179.3990  127.2240   30.1380 C.ar   80  TRP80       0.0946
     39  CD2      179.5950  125.8910   31.9250 C.ar   80  TRP80       0.0152
     40  NE1      179.8070  125.9880   29.6940 N.ar   80  TRP80      -0.2442
     41  CE2      179.9330  125.1520   30.7730 C.ar   80  TRP80       0.0810
     42  CE3      179.6420  125.2590   33.1720 C.ar   80  TRP80       0.0012
     43  CZ2      180.3160  123.8090   30.8310 C.ar   80  TRP80       0.0191
     44  CZ3      180.0210  123.9250   33.2280 C.ar   80  TRP80       0.0001
     45  CH2      180.3540  123.2160   32.0650 C.ar   80  TRP80       0.0015
     46  N        176.6250  127.2610   37.6280 N.3    84  TRP84      -0.1241
     47  CA       177.5560  127.3860   38.7450 C.3    84  TRP84       0.1605
     48  C        176.8680  128.0080   39.9590 C.2    84  TRP84       0.2264
     49  O        177.0300  127.5380   41.0840 O.2    84  TRP84      -0.2867
     50  CB       178.7690  128.2420   38.3660 C.3    84  TRP84       0.0550
     51  CG       179.6280  127.6630   37.2840 C.ar   84  TRP84       0.0003
     52  CD1      179.8970  126.3370   37.0600 C.ar   84  TRP84       0.0946
     53  CD2      180.3710  128.3920   36.3040 C.ar   84  TRP84       0.0152
     54  NE1      180.7580  126.2040   36.0030 N.ar   84  TRP84      -0.2442
     55  CE2      181.0650  127.4490   35.5200 C.ar   84  TRP84       0.0810
     56  CE3      180.5150  129.7540   36.0140 C.ar   84  TRP84       0.0012
     57  CZ2      181.8930  127.8260   34.4610 C.ar   84  TRP84       0.0191
     58  CZ3      181.3390  130.1270   34.9620 C.ar   84  TRP84       0.0001
     59  CH2      182.0160  129.1670   34.1980 C.ar   84  TRP84       0.0015
     60  N        176.4030  125.3120   21.4830 N.3   127  HIS127     -0.1241
     61  CA       177.7260  124.7810   21.7900 C.3   127  HIS127      0.1621
     62  C        177.4930  123.7230   22.8660 C.2   127  HIS127      0.2264
     63  O        176.6530  123.9120   23.7460 O.2   127  HIS127     -0.2867
     64  CB       178.5900  125.9320   22.3180 C.3   127  HIS127      0.0745
     65  CG       180.0420  125.6040   22.4650 C.ar  127  HIS127      0.0817
     66  ND1      180.5200  124.7240   23.4120 N.ar  127  HIS127     -0.2268
     67  CD2      181.1300  126.0800   21.8130 C.ar  127  HIS127      0.1154
     68  CE1      181.8370  124.6740   23.3370 C.ar  127  HIS127      0.1986
     69  NE2      182.2320  125.4860   22.3730 N.ar  127  HIS127     -0.2212
     70  N        179.1990  122.8370   25.5140 N.3   129  ALA129     -0.1231
     71  CA       179.4790  123.2330   26.8920 C.3   129  ALA129      0.1679
     72  C        178.2760  123.9680   27.4940 C.2   129  ALA129      0.2434
     73  O        177.7460  123.5560   28.5290 O.2   129  ALA129     -0.2733
     74  CB       180.7450  124.0950   26.9540 C.3   129  ALA129      0.0304
     75  N        177.8250  125.0690   26.8600 N.am  130  PRO130     -0.2729
     76  CA       176.6640  125.7290   27.4720 C.3   130  PRO130      0.1401
     77  C        175.4190  124.8340   27.4380 C.2   130  PRO130      0.2269
     78  O        174.5230  124.9770   28.2640 O.2   130  PRO130     -0.2865
     79  CB       176.5110  127.0240   26.6590 C.3   130  PRO130      0.0296
     80  CG       177.1950  126.7220   25.3390 C.3   130  PRO130      0.0237
     81  CD       178.3830  125.8680   25.7530 C.3   130  PRO130      0.0939
     82  N        185.8240  116.4360   26.6570 N.3   180  ARG180     -0.1245
     83  CA       184.7380  117.1780   27.2890 C.3   180  ARG180      0.1563
     84  C        183.4290  117.0630   26.5020 C.2   180  ARG180      0.2260
     85  O        182.3420  117.0160   27.0830 O.2   180  ARG180     -0.2867
     86  CB       185.1020  118.6600   27.3830 C.3   180  ARG180      0.0307
     87  CG       186.2910  119.0050   28.2570 C.3   180  ARG180      0.0489
     88  CD       186.4990  120.5210   28.1840 C.3   180  ARG180      0.2205
     89  NE       186.7490  120.9150   26.7940 N.pl3 180  ARG180     -0.0865
     90  CZ       186.5340  122.1310   26.2930 C.cat 180  ARG180      0.5346
     91  NH1      186.7880  122.3800   25.0120 N.pl3 180  ARG180      0.1354
     92  NH2      186.0650  123.1030   27.0640 N.pl3 180  ARG180      0.1354
     93  N        195.1230  115.0470   32.2900 N.3   226  HIS226     -0.1241
     94  CA       194.6570  116.2120   33.0380 C.3   226  HIS226      0.1621
     95  C        193.3590  115.9100   33.7720 C.2   226  HIS226      0.2264
     96  O        192.4560  115.2650   33.2300 O.2   226  HIS226     -0.2867
     97  CB       194.4620  117.4050   32.0910 C.3   226  HIS226      0.0745
     98  CG       194.3180  118.7160   32.7980 C.ar  226  HIS226      0.0817
     99  ND1      193.1860  119.0610   33.5070 N.ar  226  HIS226     -0.2268
    100  CD2      195.1830  119.7520   32.9380 C.ar  226  HIS226      0.1154
    101  CE1      193.3600  120.2500   34.0560 C.ar  226  HIS226      0.1986
    102  NE2      194.5620  120.6920   33.7270 N.ar  226  HIS226     -0.2212
    103  N        194.9620  123.6300   43.0130 N.3   275  ASP275     -0.1239
    104  CA       193.8990  124.5350   42.6120 C.3   275  ASP275      0.1674
    105  C        192.5690  124.0130   43.1420 C.2   275  ASP275      0.2266
    106  O        192.1810  122.8730   42.8600 O.2   275  ASP275     -0.2867
    107  CB       193.8540  124.6260   41.0940 C.3   275  ASP275      0.1410
    108  CG       192.7590  125.5520   40.5940 C.2   275  ASP275      0.3668
    109  OD1      191.8010  125.8540   41.3340 O.co2 275  ASP275     -0.2456
    110  OD2      192.8470  125.9750   39.4310 O.co2 275  ASP275     -0.2456
    111  N        189.5020  124.2140   42.3140 N.3   277  CYS277     -0.1221
    112  CA       188.4820  123.6320   41.4540 C.3   277  CYS277      0.1808
    113  C        188.7060  122.1360   41.2180 C.2   277  CYS277      0.2601
    114  O        187.7650  121.4020   40.9240 O.2   277  CYS277     -0.2717
    115  CB       188.4090  124.3850   40.1180 C.3   277  CYS277      0.0970
    116  SG       189.7970  124.1290   39.0030 S.3   277  CYS277     -0.0800
    117  N        189.9470  121.6820   41.3600 N.am  278  TYR278     -0.1976
    118  CA       190.2420  120.2720   41.1560 C.3   278  TYR278      0.1639
    119  C        189.7110  119.4490   42.3230 C.2   278  TYR278      0.2290
    120  O        189.7470  118.2160   42.2970 O.2   278  TYR278     -0.2864
    121  CB       191.7460  120.0640   40.9710 C.3   278  TYR278      0.0560
    122  CG       192.2640  120.6820   39.6850 C.ar  278  TYR278     -0.0198
    123  CD1      193.4100  121.4690   39.6800 C.ar  278  TYR278     -0.0009
    124  CD2      191.5610  120.5380   38.4870 C.ar  278  TYR278     -0.0009
    125  CE1      193.8350  122.1060   38.5310 C.ar  278  TYR278      0.0417
    126  CE2      191.9840  121.1760   37.3240 C.ar  278  TYR278      0.0417
    127  CZ       193.1210  121.9610   37.3590 C.ar  278  TYR278      0.1957
    128  OH       193.5390  122.6250   36.2280 O.3   278  TYR278     -0.2866
    129  N        186.9460  118.0440   40.0620 N.3   281  TRP281     -0.1241
    130  CA       187.4230  117.3120   38.8880 C.3   281  TRP281      0.1605
    131  C        188.2870  116.1030   39.2230 C.2   281  TRP281      0.2264
    132  O        188.1130  115.0330   38.6470 O.2   281  TRP281     -0.2867
    133  CB       188.1980  118.2420   37.9500 C.3   281  TRP281      0.0550
    134  CG       187.4120  119.4560   37.4770 C.ar  281  TRP281      0.0003
    135  CD1      187.7520  120.7630   37.6560 C.ar  281  TRP281      0.0946
    136  CD2      186.1820  119.4620   36.7280 C.ar  281  TRP281      0.0152
    137  NE1      186.8140  121.5830   37.0650 N.ar  281  TRP281     -0.2442
    138  CE2      185.8440  120.8090   36.4920 C.ar  281  TRP281      0.0810
    139  CE3      185.3410  118.4610   36.2370 C.ar  281  TRP281      0.0012
    140  CZ2      184.7000  121.1810   35.7830 C.ar  281  TRP281      0.0191
    141  CZ3      184.1990  118.8310   35.5310 C.ar  281  TRP281      0.0001
    142  CH2      183.8910  120.1790   35.3100 C.ar  281  TRP281      0.0015
    143  N        190.6490  129.6670   43.5910 N.3   330  ASP330     -0.1239
    144  CA       191.7330  128.7760   43.1880 C.3   330  ASP330      0.1674
    145  C        192.7080  128.4830   44.3350 C.2   330  ASP330      0.2266
    146  O        192.7500  127.3680   44.8490 O.2   330  ASP330     -0.2867
    147  CB       192.4400  129.4240   41.9830 C.3   330  ASP330      0.1410
    148  CG       193.7570  128.7520   41.6090 C.2   330  ASP330      0.3668
    149  OD1      194.0890  127.6710   42.1350 O.co2 330  ASP330     -0.2456
    150  OD2      194.4680  129.3260   40.7600 O.co2 330  ASP330     -0.2456
    151  N        194.4370  134.5540   44.8530 N.3   334  LYS334     -0.1245
    152  CA       193.6530  134.6570   43.6280 C.3   334  LYS334      0.1561
    153  C        192.3190  135.3360   43.9270 C.2   334  LYS334      0.2260
    154  O        191.9050  135.4250   45.0820 O.2   334  LYS334     -0.2867
    155  CB       193.4170  133.2620   43.0290 C.3   334  LYS334      0.0271
    156  CG       194.6890  132.5750   42.5210 C.3   334  LYS334      0.0035
    157  CD       195.3490  133.4120   41.4300 C.3   334  LYS334      0.0206
    158  CE       196.6250  132.7730   40.8860 C.3   334  LYS334      0.1093
    159  NZ       196.3690  131.4430   40.2860 N.3   334  LYS334     -0.1314
    160  N        185.5000  133.8630   42.1900 N.3   337  ASP337     -0.1225
    161  CA       184.6880  133.8020   40.9840 C.3   337  ASP337      0.1805
    162  C        183.6540  132.6870   41.1340 C.2   337  ASP337      0.2598
    163  O        183.8050  131.7900   41.9630 O.2   337  ASP337     -0.2718
    164  CB       185.5590  133.6180   39.7280 C.3   337  ASP337      0.1424
    165  CG       186.3760  132.3470   39.7530 C.2   337  ASP337      0.3668
    166  OD1      185.7770  131.2580   39.6820 O.co2 337  ASP337     -0.2456
    167  OD2      187.6210  132.4320   39.8370 O.co2 337  ASP337     -0.2456
    168  N        182.5890  132.7550   40.3460 N.am  338  PHE338     -0.1962
    169  CA       181.5250  131.7630   40.4460 C.3   338  PHE338      0.1771
    170  C        181.8970  130.3420   40.0580 C.2   338  PHE338      0.2620
    171  O        181.3030  129.3910   40.5510 O.2   338  PHE338     -0.2715
    172  CB       180.3150  132.2510   39.6600 C.3   338  PHE338      0.0574
    173  CG       179.7780  133.5530   40.1730 C.ar  338  PHE338     -0.0200
    174  CD1      179.9780  134.7300   39.4700 C.ar  338  PHE338     -0.0042
    175  CD2      179.1360  133.6080   41.4000 C.ar  338  PHE338     -0.0042
    176  CE1      179.5550  135.9430   39.9870 C.ar  338  PHE338     -0.0003
    177  CE2      178.7100  134.8160   41.9260 C.ar  338  PHE338     -0.0003
    178  CZ       178.9180  135.9870   41.2180 C.ar  338  PHE338     -0.0000
    179  N        182.8840  130.1940   39.1840 N.am  339  TYR339     -0.1960
    180  CA       183.3490  128.8710   38.7700 C.3   339  TYR339      0.1771
    181  C        183.9890  128.1450   39.9550 C.2   339  TYR339      0.2619
    182  O        183.6580  126.9930   40.2590 O.2   339  TYR339     -0.2715
    183  CB       184.3780  129.0110   37.6510 C.3   339  TYR339      0.0574
    184  CG       185.1920  127.7700   37.3650 C.ar  339  TYR339     -0.0198
    185  CD1      184.7130  126.7760   36.5170 C.ar  339  TYR339     -0.0009
    186  CD2      186.4370  127.5850   37.9600 C.ar  339  TYR339     -0.0009
    187  CE1      185.4550  125.6360   36.2730 C.ar  339  TYR339      0.0417
    188  CE2      187.1750  126.4580   37.7270 C.ar  339  TYR339      0.0417
    189  CZ       186.6840  125.4820   36.8860 C.ar  339  TYR339      0.1957
    190  OH       187.4260  124.3420   36.6910 O.3   339  TYR339     -0.2866
    191  N        184.9240  128.8140   40.6210 N.am  340  HIS340     -0.1973
    192  CA       185.5840  128.2010   41.7620 C.3   340  HIS340      0.1656
    193  C        184.6560  128.0210   42.9430 C.2   340  HIS340      0.2291
    194  O        184.8100  127.0830   43.7210 O.2   340  HIS340     -0.2864
    195  CB       186.8060  129.0100   42.1640 C.3   340  HIS340      0.0771
    196  CG       187.9560  128.8290   41.2310 C.ar  340  HIS340      0.0820
    197  ND1      188.1990  129.6800   40.1760 N.ar  340  HIS340     -0.2267
    198  CD2      188.9000  127.8610   41.1610 C.ar  340  HIS340      0.1154
    199  CE1      189.2450  129.2480   39.4970 C.ar  340  HIS340      0.1986
    200  NE2      189.6890  128.1460   40.0740 N.ar  340  HIS340     -0.2212
@<TRIPOS>BOND
     1    60    61    1
     2    61    64    1
     3    61    62    1
     4    67    69   ar
     5    67    65   ar
     6    64    65    1
     7    69    68   ar
     8    65    66   ar
     9    62    63    2
    10    68    66   ar
    11    25    22    1
    12    91    90    1
    13    80    81    1
    14    80    79    1
    15    70    71    1
    16    81    75    1
    17    22    23    1
    18    22    21    1
    19    24    23    2
    20    90    89    2
    21    90    92    1
    22    84    85    2
    23    84    83    1
    24    82    83    1
    25    23    26   am
    26    79    76    1
    27    89    88    1
    28    75    76    1
    29    75    72   am
    30    71    74    1
    31    71    72    1
    32    83    86    1
    33    86    87    1
    34    77    76    1
    35    77    78    2
    36    72    73    2
    37    26    27    1
    38    88    87    1
    39    31    30    1
    40    27    30    1
    41    27    28    1
    42    15    16    2
    43    15    14    1
    44    40    38   ar
    45    40    41   ar
    46    28    29    2
    47    13    14    1
    48    38    37   ar
    49    14    17    1
    50    41    43   ar
    51    41    39   ar
    52    43    45   ar
    53     4     3    2
    54    37    39   ar
    55    37    36    1
    56    20    18    1
    57    17    18    1
    58    32    33    1
    59    39    42   ar
    60     3     2    1
    61    45    44   ar
    62    97    98    1
    63    97    94    1
    64    18    19    1
    65    93    94    1
    66    36    33    1
    67    98   100   ar
    68    98    99   ar
    69    33    34    1
    70   100   102   ar
    71    94    95    1
    72    42    44   ar
    73    96    95    2
    74    99   101   ar
    75     2     1    1
    76     2     5    1
    77   102   101   ar
    78    34    35    2
    79    59    57   ar
    80    59    58   ar
    81     5     6    1
    82    57    55   ar
    83    58    56   ar
    84   142   141   ar
    85   142   140   ar
    86    55    54   ar
    87    55    53   ar
    88   141   139   ar
    89     6     8   ar
    90     6     7   ar
    91     8    10   ar
    92   140   138   ar
    93    54    52   ar
    94    56    53   ar
    95   128   127    1
    96   139   136   ar
    97   187   185   ar
    98   187   189   ar
    99    53    51   ar
   100   138   136   ar
   101   138   137   ar
   102   185   184   ar
   103   190   189    1
   104    10    11   ar
   105   136   134   ar
   106     7     9   ar
   107   189   188   ar
   108    52    51   ar
   109   137   135   ar
   110    51    50    1
   111   126   127   ar
   112   126   124   ar
   113   127   125   ar
   114   184   183    1
   115   184   186   ar
   116   134   135   ar
   117   134   133    1
   118    46    47    1
   119   183   180    1
   120   188   186   ar
   121    11     9   ar
   122    11    12    1
   123   133   130    1
   124    50    47    1
   125   124   122   ar
   126   125   123   ar
   127   132   131    2
   128    47    48    1
   129   180   179    1
   130   180   181    1
   131   130   131    1
   132   130   129    1
   133   116   115    1
   134   179   170   am
   135   110   108   ar
   136   174   176   ar
   137   174   173   ar
   138   199   200   ar
   139   199   197   ar
   140   172   173    1
   141   172   169    1
   142   123   122   ar
   143   166   165   ar
   144   122   121    1
   145   164   165    1
   146   164   161    1
   147   165   167   ar
   148   181   182    2
   149   181   191   am
   150    48    49    2
   151   176   178   ar
   152   170   169    1
   153   170   171    2
   154   200   198   ar
   155   115   112    1
   156   173   175   ar
   157   197   196   ar
   158   159   158    1
   159   168   169    1
   160   168   162   am
   161   108   107    1
   162   108   109   ar
   163   191   192    1
   164   150   148   ar
   165   158   157    1
   166   114   113    2
   167   121   118    1
   168   161   162    1
   169   161   160    1
   170   107   104    1
   171   162   163    2
   172   118   117    1
   173   118   119    1
   174   198   196   ar
   175   113   117   am
   176   113   112    1
   177   178   177   ar
   178   196   195    1
   179   175   177   ar
   180   157   156    1
   181   112   111    1
   182   148   147    1
   183   148   149   ar
   184   192   195    1
   185   192   193    1
   186   147   144    1
   187   120   119    2
   188   156   155    1
   189   104   103    1
   190   104   105    1
   191   106   105    2
   192   193   194    2
   193   155   152    1
   194   144   143    1
   195   144   145    1
   196   152   153    1
   197   152   151    1
   198   153   154    2
   199   145   146    2
