@<TRIPOS>MOLECULE
tmp/2r2mB01.pdb
 226 228 0 0 0
SMALL
GASTEIGER

@<TRIPOS>ATOM
      1  N         22.4730   -7.1170   18.5720 N.3    43  HIS43      -0.1241
      2  CA        22.3230   -8.5040   18.1410 C.3    43  HIS43       0.1621
      3  C         21.5840   -8.6210   16.8030 C.2    43  HIS43       0.2264
      4  O         21.6600   -9.6480   16.1400 O.2    43  HIS43      -0.2867
      5  CB        21.6870   -9.3750   19.2320 C.3    43  HIS43       0.0745
      6  CG        20.1930   -9.3170   19.2740 C.ar   43  HIS43       0.0817
      7  ND1       19.5030   -8.5650   20.2040 N.ar   43  HIS43      -0.2268
      8  CD2       19.2550   -9.9280   18.5140 C.ar   43  HIS43       0.1154
      9  CE1       18.2050   -8.7150   20.0120 C.ar   43  HIS43       0.1986
     10  NE2       18.0280   -9.5360   18.9910 N.ar   43  HIS43      -0.2212
     11  N         25.7760  -11.2670   15.5370 N.3    47  TYR47      -0.1241
     12  CA        25.5730  -12.3790   16.4520 C.3    47  TYR47       0.1605
     13  C         26.2120  -13.6570   15.9160 C.2    47  TYR47       0.2264
     14  O         25.5390  -14.4920   15.3030 O.2    47  TYR47      -0.2867
     15  CB        24.0910  -12.5850   16.7640 C.3    47  TYR47       0.0534
     16  CG        23.8800  -13.4930   17.9510 C.ar   47  TYR47      -0.0201
     17  CD1       24.3970  -13.1600   19.1990 C.ar   47  TYR47      -0.0009
     18  CD2       23.1750  -14.6830   17.8290 C.ar   47  TYR47      -0.0009
     19  CE1       24.2200  -13.9850   20.2980 C.ar   47  TYR47       0.0417
     20  CE2       22.9930  -15.5150   18.9220 C.ar   47  TYR47       0.0417
     21  CZ        23.5210  -15.1600   20.1550 C.ar   47  TYR47       0.1957
     22  OH        23.3470  -15.9870   21.2470 O.3    47  TYR47      -0.2866
     23  N         25.0820  -17.3750   15.5190 N.3    50  TRP50      -0.1241
     24  CA        24.1740  -17.7040   14.4140 C.3    50  TRP50       0.1605
     25  C         24.7300  -17.2440   13.0700 C.2    50  TRP50       0.2264
     26  O         23.9810  -17.0850   12.1040 O.2    50  TRP50      -0.2867
     27  CB        22.7870  -17.0780   14.6120 C.3    50  TRP50       0.0550
     28  CG        22.0550  -17.5430   15.8410 C.ar   50  TRP50       0.0003
     29  CD1       22.3580  -18.6240   16.6200 C.ar   50  TRP50       0.0946
     30  CD2       20.8770  -16.9520   16.4150 C.ar   50  TRP50       0.0152
     31  NE1       21.4540  -18.7310   17.6560 N.ar   50  TRP50      -0.2442
     32  CE2       20.5350  -17.7200   17.5500 C.ar   50  TRP50       0.0810
     33  CE3       20.0850  -15.8470   16.0820 C.ar   50  TRP50       0.0012
     34  CZ2       19.4320  -17.4180   18.3540 C.ar   50  TRP50       0.0191
     35  CZ3       18.9870  -15.5450   16.8870 C.ar   50  TRP50       0.0001
     36  CH2       18.6750  -16.3290   18.0090 C.ar   50  TRP50       0.0015
     37  N         25.5370  -14.4550   12.1060 N.3    52  LYS52      -0.1245
     38  CA        24.9230  -13.1960   11.6980 C.3    52  LYS52       0.1561
     39  C         25.9210  -12.0530   11.8510 C.2    52  LYS52       0.2260
     40  O         26.4060  -11.7900   12.9500 O.2    52  LYS52      -0.2867
     41  CB        23.6580  -12.9240   12.5200 C.3    52  LYS52       0.0271
     42  CG        22.8910  -11.6830   12.0720 C.3    52  LYS52       0.0035
     43  CD        21.8720  -11.2150   13.1110 C.3    52  LYS52       0.0206
     44  CE        20.6050  -12.0560   13.0920 C.3    52  LYS52       0.1093
     45  NZ        19.7090  -11.6540   14.2160 N.3    52  LYS52      -0.1314
     46  N         28.0510  -10.4440   23.2350 N.3    92  TRP92      -0.1227
     47  CA        27.3150  -11.4990   22.5380 C.3    92  TRP92       0.1737
     48  C         27.7120  -12.9020   22.9920 C.2    92  TRP92       0.2595
     49  O         27.0090  -13.8720   22.7130 O.2    92  TRP92      -0.2718
     50  CB        27.5050  -11.3800   21.0240 C.3    92  TRP92       0.0564
     51  CG        28.9490  -11.3110   20.5910 C.ar   92  TRP92       0.0003
     52  CD1       29.6980  -10.1810   20.3900 C.ar   92  TRP92       0.0946
     53  CD2       29.8130  -12.4200   20.3050 C.ar   92  TRP92       0.0152
     54  NE1       30.9710  -10.5210   20.0010 N.ar   92  TRP92      -0.2442
     55  CE2       31.0680  -11.8880   19.9350 C.ar   92  TRP92       0.0810
     56  CE3       29.6470  -13.8120   20.3260 C.ar   92  TRP92       0.0012
     57  CZ2       32.1540  -12.6990   19.5910 C.ar   92  TRP92       0.0191
     58  CZ3       30.7260  -14.6180   19.9780 C.ar   92  TRP92       0.0001
     59  CH2       31.9650  -14.0560   19.6210 C.ar   92  TRP92       0.0015
     60  N         28.8430  -13.0120   23.6790 N.am   93  ARG93      -0.1966
     61  CA        29.3380  -14.3230   24.0920 C.3    93  ARG93       0.1729
     62  C         28.4980  -14.8920   25.2160 C.2    93  ARG93       0.2616
     63  O         28.2280  -16.0900   25.2510 O.2    93  ARG93      -0.2715
     64  CB        30.7980  -14.2420   24.5390 C.3    93  ARG93       0.0348
     65  CG        31.7520  -13.8270   23.4430 C.3    93  ARG93       0.0492
     66  CD        33.1800  -13.8070   23.9410 C.3    93  ARG93       0.2205
     67  NE        34.1180  -13.8750   22.8270 N.pl3  93  ARG93      -0.0865
     68  CZ        34.4380  -15.0040   22.2010 C.cat  93  ARG93       0.5346
     69  NH1       35.3010  -14.9790   21.1920 N.pl3  93  ARG93       0.1354
     70  NH2       33.8940  -16.1580   22.5830 N.pl3  93  ARG93       0.1354
     71  N         28.0730  -14.0220   26.1240 N.am   94  GLU94      -0.1963
     72  CA        27.4060  -14.4570   27.3440 C.3    94  GLU94       0.1733
     73  C         25.9160  -14.0840   27.4280 C.2    94  GLU94       0.2616
     74  O         25.0520  -14.9540   27.3150 O.2    94  GLU94      -0.2715
     75  CB        28.1480  -13.9070   28.5600 C.3    94  GLU94       0.0429
     76  CG        27.7050  -14.5080   29.8780 C.3    94  GLU94       0.1163
     77  CD        28.3400  -13.8160   31.0660 C.2    94  GLU94       0.3649
     78  OE1       29.2450  -12.9800   30.8470 O.co2  94  GLU94      -0.2457
     79  OE2       27.9320  -14.1030   32.2140 O.co2  94  GLU94      -0.2457
     80  N         25.6100  -12.8000   27.6230 N.am   95  ASN95      -0.1958
     81  CA        24.2490  -12.4110   28.0020 C.3    95  ASN95       0.1819
     82  C         23.6310  -11.2480   27.2210 C.2    95  ASN95       0.2621
     83  O         22.6140  -10.6990   27.6360 O.2    95  ASN95      -0.2715
     84  CB        24.2180  -12.0930   29.4980 C.3    95  ASN95       0.1195
     85  CG        25.2510  -11.0670   29.8740 C.2    95  ASN95       0.2630
     86  OD1       25.9840  -10.5770   29.0100 O.2    95  ASN95      -0.2716
     87  ND2       25.3160  -10.7190   31.1540 N.am   95  ASN95      -0.0877
     88  N         24.2370  -10.8780   26.0980 N.am   96  LEU96      -0.1977
     89  CA        23.7630   -9.7440   25.3000 C.3    96  LEU96       0.1596
     90  C         23.8040   -8.4380   26.1020 C.2    96  LEU96       0.2287
     91  O         22.9940   -7.5330   25.8900 O.2    96  LEU96      -0.2864
     92  CB        22.3540  -10.0030   24.7180 C.3    96  LEU96       0.0297
     93  CG        22.2600  -11.1400   23.6890 C.3    96  LEU96       0.0022
     94  CD1       20.8390  -11.3370   23.1400 C.3    96  LEU96       0.0001
     95  CD2       23.2470  -10.9150   22.5500 C.3    96  LEU96       0.0001
     96  N         20.2490  -16.8800   33.1050 N.3   171  ILE171     -0.1245
     97  CA        21.1260  -15.9060   32.4640 C.3   171  ILE171      0.1561
     98  C         21.5560  -14.8360   33.4710 C.2   171  ILE171      0.2260
     99  O         20.7470  -14.3830   34.2810 O.2   171  ILE171     -0.2867
    100  CB        20.4140  -15.2280   31.2560 C.3   171  ILE171      0.0252
    101  CG1       19.9580  -16.2800   30.2370 C.3   171  ILE171      0.0019
    102  CG2       21.3240  -14.2170   30.5890 C.3   171  ILE171      0.0019
    103  CD1       21.1060  -17.0520   29.6010 C.3   171  ILE171      0.0001
    104  N          4.0770   -9.9540   25.3320 N.3   191  ASP191     -0.1225
    105  CA         5.5280   -9.9720   25.2790 C.3   191  ASP191      0.1805
    106  C          5.9680   -9.5980   23.8670 C.2   191  ASP191      0.2598
    107  O          5.1790   -9.6630   22.9200 O.2   191  ASP191     -0.2718
    108  CB         6.0390  -11.3710   25.6550 C.3   191  ASP191      0.1424
    109  CG         7.5530  -11.4320   25.8280 C.2   191  ASP191      0.3668
    110  OD1        8.2140  -10.3720   25.8900 O.co2 191  ASP191     -0.2456
    111  OD2        8.0830  -12.5610   25.9130 O.co2 191  ASP191     -0.2456
    112  N          7.2190   -9.1770   23.7310 N.am  192  ALA192     -0.1966
    113  CA         7.8260   -9.0510   22.4200 C.3   192  ALA192      0.1728
    114  C          8.2210  -10.4540   21.9760 C.2   192  ALA192      0.2616
    115  O          8.1350  -11.4040   22.7520 O.2   192  ALA192     -0.2715
    116  CB         9.0410   -8.1510   22.4850 C.3   192  ALA192      0.0334
    117  N          8.6590  -10.5910   20.7340 N.am  193  CYS193     -0.1954
    118  CA         9.0520  -11.9020   20.2400 C.3   193  CYS193      0.1843
    119  C         10.0710  -11.7340   19.1170 C.2   193  CYS193      0.2625
    120  O         10.5280  -10.6180   18.8320 O.2   193  CYS193     -0.2714
    121  CB         7.8150  -12.6690   19.7520 C.3   193  CYS193      0.0997
    122  SG         7.9750  -14.4910   19.6630 S.3   193  CYS193     -0.0797
    123  N         10.4240  -12.8480   18.4860 N.am  194  GLU194     -0.1977
    124  CA        11.3540  -12.8540   17.3650 C.3   194  GLU194      0.1602
    125  C         10.8840  -11.8780   16.2920 C.2   194  GLU194      0.2287
    126  O          9.7140  -11.8930   15.9130 O.2   194  GLU194     -0.2864
    127  CB        11.4210  -14.2690   16.7930 C.3   194  GLU194      0.0415
    128  CG        12.4740  -14.5000   15.7270 C.3   194  GLU194      0.1163
    129  CD        12.5700  -15.9690   15.3250 C.2   194  GLU194      0.3649
    130  OE1       12.7950  -16.8250   16.2170 O.co2 194  GLU194     -0.2457
    131  OE2       12.4140  -16.2640   14.1190 O.co2 194  GLU194     -0.2457
    132  N         12.9380   -7.5210   17.9690 N.3   197  SER197     -0.1217
    133  CA        14.2300   -7.0610   18.4850 C.3   197  SER197      0.1889
    134  C         14.6290   -5.7360   17.8680 C.2   197  SER197      0.2288
    135  O         14.3910   -5.4980   16.6860 O.2   197  SER197     -0.2866
    136  CB        15.3280   -8.0940   18.1980 C.3   197  SER197      0.2089
    137  OG        15.2010   -9.2310   19.0290 O.3   197  SER197     -0.2183
    138  N         14.1360   -3.5080   22.7900 N.3   217  VAL217     -0.1231
    139  CA        13.7890   -4.9320   22.8270 C.3   217  VAL217      0.1692
    140  C         15.0390   -5.7870   22.6190 C.2   217  VAL217      0.2593
    141  O         15.6650   -5.7550   21.5570 O.2   217  VAL217     -0.2718
    142  CB        12.7370   -5.2980   21.7550 C.3   217  VAL217      0.0266
    143  CG1       12.4010   -6.7940   21.8210 C.3   217  VAL217      0.0020
    144  CG2       11.4820   -4.4670   21.9410 C.3   217  VAL217      0.0020
    145  N         15.4150   -6.5440   23.6400 N.am  218  SER218     -0.1938
    146  CA        16.6670   -7.2810   23.5730 C.3   218  SER218      0.2055
    147  C         16.4680   -8.7850   23.4870 C.2   218  SER218      0.2643
    148  O         16.6310   -9.3830   22.4240 O.2   218  SER218     -0.2714
    149  CB        17.5690   -6.9150   24.7540 C.3   218  SER218      0.2130
    150  OG        18.8450   -7.5170   24.6190 O.3   218  SER218     -0.2179
    151  N         16.1130   -9.4120   24.6000 N.am  219  TRP219     -0.1959
    152  CA        16.0130  -10.8620   24.5980 C.3   219  TRP219      0.1771
    153  C         14.9810  -11.3990   25.5680 C.2   219  TRP219      0.2620
    154  O         14.4680  -10.6860   26.4300 O.2   219  TRP219     -0.2715
    155  CB        17.3770  -11.5000   24.8940 C.3   219  TRP219      0.0590
    156  CG        17.9260  -11.1450   26.2470 C.ar  219  TRP219      0.0006
    157  CD1       18.6770  -10.0540   26.5630 C.ar  219  TRP219      0.0946
    158  CD2       17.7840  -11.8980   27.4600 C.ar  219  TRP219      0.0152
    159  NE1       19.0040  -10.0710   27.8960 N.ar  219  TRP219     -0.2442
    160  CE2       18.4700  -11.1940   28.4700 C.ar  219  TRP219      0.0810
    161  CE3       17.1410  -13.0940   27.7900 C.ar  219  TRP219      0.0012
    162  CZ2       18.5300  -11.6470   29.7930 C.ar  219  TRP219      0.0191
    163  CZ3       17.2000  -13.5430   29.1040 C.ar  219  TRP219      0.0001
    164  CH2       17.8910  -12.8180   30.0880 C.ar  219  TRP219      0.0015
    165  N         14.6830  -12.6540   25.3700 N.am  220  GLY220     -0.1940
    166  CA        13.9520  -13.4440   26.3110 C.3   220  GLY220      0.2014
    167  C         14.0440  -14.9090   25.9750 C.2   220  GLY220      0.2639
    168  O         14.7040  -15.2950   25.0880 O.2   220  GLY220     -0.2714
    169  N         13.3530  -15.7170   26.7320 N.am  221  GLU221     -0.1963
    170  CA        13.3370  -17.1420   26.5370 C.3   221  GLU221      0.1733
    171  C         11.9660  -17.5570   26.1340 C.2   221  GLU221      0.2617
    172  O         11.0710  -17.5090   26.9030 O.2   221  GLU221     -0.2715
    173  CB        13.7430  -17.8470   27.8150 C.3   221  GLU221      0.0429
    174  CG        15.0180  -17.3570   28.3700 C.3   221  GLU221      0.1163
    175  CD        15.2900  -17.8560   29.7630 C.2   221  GLU221      0.3649
    176  OE1       15.5310  -19.0370   29.9150 O.co2 221  GLU221     -0.2457
    177  OE2       15.2480  -17.0830   30.6920 O.co2 221  GLU221     -0.2457
    178  N         11.8310  -17.9620   24.8970 N.am  222  GLY222     -0.1940
    179  CA        10.5360  -18.0650   24.2780 C.3   222  GLY222      0.2014
    180  C          9.8420  -16.7330   24.1790 C.2   222  GLY222      0.2639
    181  O         10.4870  -15.7370   24.2710 O.2   222  GLY222     -0.2714
    182  N          8.5380  -16.7420   24.0090 N.am  223  CYS223     -0.1967
    183  CA         7.7590  -15.5060   23.9820 C.3   223  CYS223      0.1712
    184  C          6.4770  -15.6630   24.7860 C.2   223  CYS223      0.2296
    185  O          5.6830  -16.5740   24.5400 O.2   223  CYS223     -0.2864
    186  CB         7.4040  -15.1130   22.5450 C.3   223  CYS223      0.0983
    187  SG         8.7980  -15.0620   21.4240 S.3   223  CYS223     -0.0798
    188  N         10.0390  -13.2190   31.4660 N.3   229  TYR229     -0.1227
    189  CA         9.8760  -11.8050   31.1710 C.3   229  TYR229      0.1736
    190  C         10.7340  -11.3700   29.9920 C.2   229  TYR229      0.2596
    191  O         11.7630  -11.9750   29.7050 O.2   229  TYR229     -0.2718
    192  CB        10.1830  -10.9590   32.4130 C.3   229  TYR229      0.0548
    193  CG         9.3660  -11.3700   33.6140 C.ar  229  TYR229     -0.0200
    194  CD1        9.8360  -12.3290   34.5000 C.ar  229  TYR229     -0.0009
    195  CD2        8.1140  -10.8170   33.8480 C.ar  229  TYR229     -0.0009
    196  CE1        9.0870  -12.7170   35.5900 C.ar  229  TYR229      0.0417
    197  CE2        7.3580  -11.1930   34.9330 C.ar  229  TYR229      0.0417
    198  CZ         7.8490  -12.1490   35.8010 C.ar  229  TYR229      0.1957
    199  OH         7.1040  -12.5370   36.8850 O.3   229  TYR229     -0.2866
    200  N         10.2940  -10.3240   29.3020 N.am  230  GLY230     -0.1942
    201  CA        11.0940   -9.7380   28.2440 C.3   230  GLY230      0.2014
    202  C         12.1790   -8.8740   28.8570 C.2   230  GLY230      0.2639
    203  O         11.9500   -8.2070   29.8610 O.2   230  GLY230     -0.2714
    204  N         13.3640   -8.9040   28.2620 N.am  231  PHE231     -0.1959
    205  CA        14.4710   -8.0850   28.7220 C.3   231  PHE231      0.1771
    206  C         14.7890   -6.9960   27.7130 C.2   231  PHE231      0.2619
    207  O         14.7160   -7.2080   26.4970 O.2   231  PHE231     -0.2715
    208  CB        15.7010   -8.9410   29.0260 C.3   231  PHE231      0.0574
    209  CG        15.5850   -9.7090   30.3070 C.ar  231  PHE231     -0.0200
    210  CD1       14.8760  -10.8940   30.3570 C.ar  231  PHE231     -0.0042
    211  CD2       16.1630   -9.2330   31.4700 C.ar  231  PHE231     -0.0042
    212  CE1       14.7560  -11.5970   31.5430 C.ar  231  PHE231     -0.0003
    213  CE2       16.0440   -9.9360   32.6590 C.ar  231  PHE231     -0.0003
    214  CZ        15.3420  -11.1110   32.6910 C.ar  231  PHE231     -0.0000
    215  N         15.1290   -5.8210   28.2340 N.am  232  TYR232     -0.1974
    216  CA        15.3100   -4.6440   27.4130 C.3   232  TYR232      0.1639
    217  C         16.6280   -3.9860   27.7430 C.2   232  TYR232      0.2290
    218  O         17.0370   -3.9650   28.8960 O.2   232  TYR232     -0.2864
    219  CB        14.1390   -3.6780   27.6480 C.3   232  TYR232      0.0560
    220  CG        12.8270   -4.3050   27.2560 C.ar  232  TYR232     -0.0198
    221  CD1       12.1740   -5.2000   28.1060 C.ar  232  TYR232     -0.0009
    222  CD2       12.2700   -4.0570   26.0170 C.ar  232  TYR232     -0.0009
    223  CE1       10.9890   -5.8000   27.7300 C.ar  232  TYR232      0.0417
    224  CE2       11.0870   -4.6460   25.6400 C.ar  232  TYR232      0.0417
    225  CZ        10.4530   -5.5170   26.4930 C.ar  232  TYR232      0.1957
    226  OH         9.2770   -6.1030   26.0810 O.3   232  TYR232     -0.2866
@<TRIPOS>BOND
     1    38    39    1
     2    38    37    1
     3    38    41    1
     4    39    40    2
     5    42    41    1
     6    42    43    1
     7    26    25    2
     8    25    24    1
     9    44    43    1
    10    44    45    1
    11   131   129   ar
    12    24    27    1
    13    24    23    1
    14    27    28    1
    15    14    13    2
    16   129   128    1
    17   129   130   ar
    18    11    12    1
    19   128   127    1
    20    28    30   ar
    21    28    29   ar
    22   126   125    2
    23    13    12    1
    24    33    30   ar
    25    33    35   ar
    26     4     3    2
    27   125   124    1
    28    30    32   ar
    29    12    15    1
    30    29    31   ar
    31   135   134    2
    32    15    16    1
    33   127   124    1
    34     3     2    1
    35    35    36   ar
    36   124   123    1
    37    32    31   ar
    38    32    34   ar
    39    18    16   ar
    40    18    20   ar
    41   134   133    1
    42    16    17   ar
    43   132   133    1
    44    36    34   ar
    45     2     1    1
    46     2     5    1
    47   136   133    1
    48   136   137    1
    49   123   119   am
    50     8    10   ar
    51     8     6   ar
    52   120   119    2
    53    20    21   ar
    54    10     9   ar
    55   119   118    1
    56    17    19   ar
    57     5     6    1
    58     6     7   ar
    59    57    59   ar
    60    57    55   ar
    61    59    58   ar
    62   122   121    1
    63   122   187    1
    64   121   118    1
    65    55    54   ar
    66    55    53   ar
    67    58    56   ar
    68    54    52   ar
    69     9     7   ar
    70    21    19   ar
    71    21    22    1
    72   118   117    1
    73    53    56   ar
    74    53    51   ar
    75    52    51   ar
    76    51    50    1
    77   117   114   am
    78    50    47    1
    79    69    68    1
    80   187   186    1
    81   141   140    2
    82   142   143    1
    83   142   144    1
    84   142   139    1
    85   114   113    1
    86   114   115    2
    87    68    70    1
    88    68    67    2
    89   113   116    1
    90   113   112    1
    91   148   147    2
    92    47    48    1
    93    47    46    1
    94   186   183    1
    95    95    93    1
    96   140   139    1
    97   140   145   am
    98    49    48    2
    99   138   139    1
   100    67    66    1
   101   107   106    2
   102    48    60   am
   103    94    93    1
   104    65    66    1
   105    65    64    1
   106   147   146    1
   107   147   151   am
   108   146   145    1
   109   146   149    1
   110    60    61    1
   111    93    92    1
   112   112   106   am
   113   106   105    1
   114   183   182    1
   115   183   184    1
   116   182   180   am
   117    61    64    1
   118    61    62    1
   119   180   181    2
   120   180   179    1
   121   179   178    1
   122   185   184    2
   123   152   151    1
   124   152   155    1
   125   152   153    1
   126   150   149    1
   127    92    89    1
   128   155   156    1
   129   178   171   am
   130   168   167    2
   131    62    63    2
   132    62    71   am
   133   105   104    1
   134   105   108    1
   135    89    88    1
   136    89    90    1
   137   165   153   am
   138   165   166    1
   139   153   154    2
   140   224   222   ar
   141   224   225   ar
   142   108   109    1
   143   109   110   ar
   144   109   111   ar
   145    91    90    2
   146   167   166    1
   147   167   169   am
   148   222   220   ar
   149   226   225    1
   150    88    82   am
   151    71    72    1
   152   171   170    1
   153   171   172    2
   154   156   157   ar
   155   156   158   ar
   156   225   223   ar
   157   207   206    2
   158   170   169    1
   159   170   173    1
   160   157   159   ar
   161    82    83    2
   162    82    81    1
   163   220   219    1
   164   220   221   ar
   165    74    73    2
   166    72    73    1
   167    72    75    1
   168   216   219    1
   169   216   217    1
   170   216   215    1
   171    73    80   am
   172   158   161   ar
   173   158   160   ar
   174    80    81    1
   175   206   215   am
   176   206   205    1
   177   223   221   ar
   178   217   218    2
   179   161   163   ar
   180   173   174    1
   181   159   160   ar
   182    81    84    1
   183   201   202    1
   184   201   200    1
   185   204   205    1
   186   204   202   am
   187   174   175    1
   188   160   162   ar
   189    75    76    1
   190   205   208    1
   191   202   203    2
   192    86    85    2
   193   208   209    1
   194   163   164   ar
   195   200   190   am
   196    84    85    1
   197   103   101    1
   198   191   190    2
   199   175   176   ar
   200   175   177   ar
   201   162   164   ar
   202    85    87   am
   203    76    77    1
   204   190   189    1
   205   101   100    1
   206   209   210   ar
   207   209   211   ar
   208   210   212   ar
   209   102   100    1
   210    78    77   ar
   211    77    79   ar
   212   189   188    1
   213   189   192    1
   214   100    97    1
   215   211   213   ar
   216   212   214   ar
   217   192   193    1
   218    97    96    1
   219    97    98    1
   220   213   214   ar
   221    98    99    2
   222   193   195   ar
   223   193   194   ar
   224   195   197   ar
   225   194   196   ar
   226   197   198   ar
   227   196   198   ar
   228   198   199    1
