@<TRIPOS>MOLECULE
tmp/2r2nC01.pdb
 84 83 0 0 0
SMALL
GASTEIGER

@<TRIPOS>ATOM
      1  N         10.4030   -9.1930  107.4440 N.3    19  ILE19      -0.1231
      2  CA        10.5850   -9.4740  108.8710 C.3    19  ILE19       0.1692
      3  C          9.3250   -9.7440  109.7080 C.2    19  ILE19       0.2591
      4  O          9.0140  -10.9010  109.9780 O.2    19  ILE19      -0.2718
      5  CB        11.5060   -8.4220  109.5260 C.3    19  ILE19       0.0266
      6  CG1       12.9590   -8.6250  109.0850 C.3    19  ILE19       0.0019
      7  CG2       11.4040   -8.4810  111.0380 C.3    19  ILE19       0.0020
      8  CD1       13.2870   -8.0940  107.7290 C.3    19  ILE19       0.0001
      9  N          8.5650   -8.7190  110.0780 N.am   20  ARG20      -0.1980
     10  CA         7.6640   -8.8240  111.2330 C.3    20  ARG20       0.1597
     11  C          6.5130   -9.8400  111.1160 C.2    20  ARG20       0.2287
     12  O          5.7190  -10.0170  112.0450 O.2    20  ARG20      -0.2864
     13  CB         7.1410   -7.4430  111.6430 C.3    20  ARG20       0.0334
     14  CG         6.4090   -6.6830  110.5410 C.3    20  ARG20       0.0492
     15  CD         6.6730   -5.2000  110.5510 C.3    20  ARG20       0.2205
     16  NE         6.8890   -4.6790  109.2080 N.pl3  20  ARG20      -0.0865
     17  CZ         8.0820   -4.4590  108.6590 C.cat  20  ARG20       0.5346
     18  NH1        9.2030   -4.7200  109.3360 N.pl3  20  ARG20       0.1354
     19  NH2        8.1500   -3.9790  107.4220 N.pl3  20  ARG20       0.1354
     20  N         14.0950  -11.5760  115.2880 N.3    38  GLY38      -0.1210
     21  CA        13.7310  -10.1520  115.3030 C.3    38  GLY38       0.1956
     22  C         14.8920   -9.1690  115.2550 C.2    38  GLY38       0.2612
     23  O         16.0370   -9.5240  115.4580 O.2    38  GLY38      -0.2717
     24  N         14.5840   -7.9170  114.9730 N.am   39  GLY39      -0.1942
     25  CA        15.5950   -6.9000  114.8640 C.3    39  GLY39       0.2014
     26  C         15.5080   -5.8870  115.9590 C.2    39  GLY39       0.2638
     27  O         15.9550   -4.7480  115.7890 O.2    39  GLY39      -0.2714
     28  N         14.9440   -6.2890  117.1010 N.am   40  LEU40      -0.1977
     29  CA        14.8300   -5.3730  118.2420 C.3    40  LEU40       0.1596
     30  C         16.1620   -5.3070  118.9980 C.2    40  LEU40       0.2287
     31  O         16.7160   -6.3550  119.3190 O.2    40  LEU40      -0.2864
     32  CB        13.7480   -5.8790  119.2040 C.3    40  LEU40       0.0297
     33  CG        12.3500   -6.0870  118.6110 C.3    40  LEU40       0.0022
     34  CD1       11.4660   -6.7360  119.6730 C.3    40  LEU40       0.0001
     35  CD2       11.7360   -4.7610  118.1360 C.3    40  LEU40       0.0001
     36  N         10.8130   -0.1290  119.7270 N.3    74  TYR74      -0.1227
     37  CA        10.0340   -0.1170  118.5020 C.3    74  TYR74       0.1736
     38  C          8.6560   -0.6490  118.7200 C.2    74  TYR74       0.2596
     39  O          8.4370   -1.5180  119.5780 O.2    74  TYR74      -0.2718
     40  CB        10.6970   -0.9900  117.4400 C.3    74  TYR74       0.0548
     41  CG        12.0350   -0.5020  116.8500 C.ar   74  TYR74      -0.0200
     42  CD1       12.1150    0.6740  116.0760 C.ar   74  TYR74      -0.0009
     43  CD2       13.2090   -1.2640  117.0340 C.ar   74  TYR74      -0.0009
     44  CE1       13.3300    1.0720  115.4740 C.ar   74  TYR74       0.0417
     45  CE2       14.4390   -0.8510  116.4900 C.ar   74  TYR74       0.0417
     46  CZ        14.4870    0.3090  115.6970 C.ar   74  TYR74       0.1957
     47  OH        15.6860    0.6580  115.1250 O.3    74  TYR74      -0.2866
     48  N          7.7190   -0.2060  117.8800 N.am   75  SER75      -0.1938
     49  CA         6.3500   -0.6850  117.9960 C.3    75  SER75       0.2040
     50  C          5.6770   -0.6740  116.5850 C.2    75  SER75       0.2485
     51  O          6.3000   -0.2100  115.6180 O.2    75  SER75      -0.2729
     52  CB         5.6000    0.1860  119.0080 C.3    75  SER75       0.2129
     53  OG         5.4400    1.5150  118.5220 O.3    75  SER75      -0.2179
     54  N          4.4190   -1.1740  116.4530 N.am   76  PRO76      -0.2715
     55  CA         3.8810   -1.3070  115.1050 C.3    76  PRO76       0.1536
     56  C          3.7790    0.0080  114.3070 C.2    76  PRO76       0.2599
     57  O          3.3730    1.0320  114.8490 O.2    76  PRO76      -0.2715
     58  CB         2.4600   -1.8700  115.3530 C.3    76  PRO76       0.0310
     59  CG         2.5430   -2.5510  116.6980 C.3    76  PRO76       0.0237
     60  CD         3.4520   -1.6580  117.4660 C.3    76  PRO76       0.0939
     61  N          4.0710   -0.0760  113.0090 N.am   77  SER77      -0.1950
     62  CA         4.0490    1.0710  112.1170 C.3    77  SER77       0.1924
     63  C          2.7290    1.8790  112.1700 C.2    77  SER77       0.2314
     64  O          2.7810    3.0950  112.1410 O.2    77  SER77      -0.2863
     65  CB         4.3510    0.6410  110.6550 C.3    77  SER77       0.2116
     66  OG         5.7090    0.1860  110.5060 O.3    77  SER77      -0.2180
     67  N          8.9700    4.8940  110.4530 N.3   293  LEU293     -0.1231
     68  CA         8.7670    3.5140  110.9570 C.3   293  LEU293      0.1693
     69  C          7.5040    3.4440  111.7780 C.2   293  LEU293      0.2592
     70  O          6.6610    2.5890  111.5320 O.2   293  LEU293     -0.2718
     71  CB         9.9470    2.9640  111.7810 C.3   293  LEU293      0.0284
     72  CG        11.3080    2.8690  111.1270 C.3   293  LEU293      0.0019
     73  CD1       12.1220    1.8920  112.0530 C.3   293  LEU293      0.0001
     74  CD2       11.1820    2.3110  109.7390 C.3   293  LEU293      0.0001
     75  N          7.3670    4.3880  112.6990 N.am  294  HIS294     -0.1976
     76  CA         6.1930    4.4870  113.5280 C.3   294  HIS294      0.1656
     77  C          6.2300    5.7640  114.3950 C.2   294  HIS294      0.2291
     78  O          7.3040    6.3410  114.6110 O.2   294  HIS294     -0.2864
     79  CB         6.0670    3.2220  114.4140 C.3   294  HIS294      0.0771
     80  CG         7.1260    3.1180  115.4580 C.ar  294  HIS294      0.0820
     81  ND1        8.2280    2.2940  115.3340 N.ar  294  HIS294     -0.2267
     82  CD2        7.2610    3.7470  116.6430 C.ar  294  HIS294      0.1154
     83  CE1        9.0040    2.4340  116.3980 C.ar  294  HIS294      0.1986
     84  NE2        8.4330    3.3030  117.2080 N.ar  294  HIS294     -0.2212
@<TRIPOS>BOND
     1    19    17    1
     2     1     2    1
     3     8     6    1
     4    17    16    2
     5    17    18    1
     6     2     5    1
     7     2     3    1
     8     6     5    1
     9    16    15    1
    10     5     7    1
    11     3     4    2
    12     3     9   am
    13    74    72    1
    14     9    10    1
    15    67    68    1
    16    66    65    1
    17    14    15    1
    18    14    13    1
    19    65    62    1
    20    68    69    1
    21    68    71    1
    22    11    10    1
    23    11    12    2
    24    72    71    1
    25    72    73    1
    26    10    13    1
    27    70    69    2
    28    69    75   am
    29    62    63    1
    30    62    61    1
    31    64    63    2
    32    75    76    1
    33    61    56   am
    34    76    77    1
    35    76    79    1
    36    56    57    2
    37    56    55    1
    38    77    78    2
    39    79    80    1
    40    25    24    1
    41    25    26    1
    42    24    22   am
    43    55    58    1
    44    55    54    1
    45    47    46    1
    46    22    21    1
    47    22    23    2
    48    20    21    1
    49    81    80   ar
    50    81    83   ar
    51    58    59    1
    52    80    82   ar
    53    44    46   ar
    54    44    42   ar
    55    51    50    2
    56    46    45   ar
    57    27    26    2
    58    26    28   am
    59    42    41   ar
    60    83    84   ar
    61    54    50   am
    62    54    60    1
    63    45    43   ar
    64    50    49    1
    65    82    84   ar
    66    59    60    1
    67    41    43   ar
    68    41    40    1
    69    28    29    1
    70    40    37    1
    71    48    49    1
    72    48    38   am
    73    49    52    1
    74    35    33    1
    75    29    30    1
    76    29    32    1
    77    37    38    1
    78    37    36    1
    79    53    52    1
    80    33    32    1
    81    33    34    1
    82    38    39    2
    83    30    31    2
