@<TRIPOS>MOLECULE
tmp/2r2nC00.pdb
 131 123 0 0 0
SMALL
GASTEIGER

@<TRIPOS>ATOM
      1  N          1.9150   13.3400  113.9570 N.3   116  GLY116     -0.1210
      2  CA         1.1930   14.5780  113.6360 C.3   116  GLY116      0.1956
      3  C          0.2040   14.3290  112.5300 C.2   116  GLY116      0.2613
      4  O          0.4370   13.4350  111.7010 O.2   116  GLY116     -0.2717
      5  N         -0.8520   15.1390  112.4330 N.am  117  SER117     -0.1938
      6  CA        -1.7880   14.9860  111.3180 C.3   117  SER117      0.2055
      7  C         -1.1390   15.3220  109.9720 C.2   117  SER117      0.2642
      8  O         -1.4970   14.7750  108.9330 O.2   117  SER117     -0.2714
      9  CB        -3.0870   15.7670  111.5240 C.3   117  SER117      0.2130
     10  OG        -2.9240   17.1760  111.3310 O.3   117  SER117     -0.2179
     11  N         -0.1760   16.2240  109.9940 N.am  118  GLN118     -0.1976
     12  CA         0.3860   16.7080  108.7590 C.3   118  GLN118      0.1601
     13  C          1.1360   15.5470  108.0590 C.2   118  GLN118      0.2287
     14  O          1.2820   15.5480  106.8420 O.2   118  GLN118     -0.2864
     15  CB         1.3440   17.8370  109.0690 C.3   118  GLN118      0.0394
     16  CG         2.0030   18.4290  107.8410 C.3   118  GLN118      0.0908
     17  CD         1.2730   19.6400  107.4200 C.2   118  GLN118      0.2608
     18  OE1        0.6830   19.6490  106.3520 O.2   118  GLN118     -0.2717
     19  NE2        1.2570   20.6730  108.2840 N.am  118  GLN118     -0.0878
     20  N         -1.4660   13.6800  106.0380 N.3   121  LEU121     -0.1245
     21  CA        -1.8350   14.4690  104.8740 C.3   121  LEU121      0.1561
     22  C         -0.7680   14.4330  103.7780 C.2   121  LEU121      0.2260
     23  O         -1.0800   14.2130  102.5940 O.2   121  LEU121     -0.2867
     24  CB        -2.0920   15.9280  105.2550 C.3   121  LEU121      0.0270
     25  CG        -3.3600   16.1540  106.0520 C.3   121  LEU121      0.0019
     26  CD1       -3.2240   17.5090  106.6770 C.3   121  LEU121      0.0001
     27  CD2       -4.5360   16.0840  105.1270 C.3   121  LEU121      0.0001
     28  N         -4.5620   26.5110  104.1990 N.3   142  TYR142     -0.1241
     29  CA        -3.4540   26.3400  105.1080 C.3   142  TYR142      0.1605
     30  C         -2.1180   26.3020  104.3440 C.2   142  TYR142      0.2264
     31  O         -1.9500   25.5440  103.3780 O.2   142  TYR142     -0.2867
     32  CB        -3.6980   25.0880  105.9550 C.3   142  TYR142      0.0534
     33  CG        -2.5050   24.6020  106.7070 C.ar  142  TYR142     -0.0201
     34  CD1       -2.0600   23.2930  106.5530 C.ar  142  TYR142     -0.0009
     35  CD2       -1.8150   25.4370  107.5810 C.ar  142  TYR142     -0.0009
     36  CE1       -0.9450   22.8300  107.2500 C.ar  142  TYR142      0.0417
     37  CE2       -0.7120   24.9880  108.2740 C.ar  142  TYR142      0.0417
     38  CZ        -0.2880   23.6970  108.1150 C.ar  142  TYR142      0.1957
     39  OH         0.8190   23.2590  108.8190 O.3   142  TYR142     -0.2866
     40  N        -10.5450   22.2540  104.8750 N.3   197  VAL197     -0.1245
     41  CA       -10.5460   22.2050  106.3160 C.3   197  VAL197      0.1561
     42  C        -11.9150   22.7060  106.7540 C.2   197  VAL197      0.2260
     43  O        -12.1810   23.9080  106.6570 O.2   197  VAL197     -0.2867
     44  CB        -9.4220   23.1130  106.8710 C.3   197  VAL197      0.0252
     45  CG1       -9.5760   23.3310  108.4140 C.3   197  VAL197      0.0019
     46  CG2       -8.0400   22.5950  106.4210 C.3   197  VAL197      0.0019
     47  N         -7.8070   27.4320  108.6920 N.3   202  ASN202     -0.1240
     48  CA        -6.6540   28.2570  108.8780 C.3   202  ASN202      0.1653
     49  C         -6.3250   28.8210  107.4780 C.2   202  ASN202      0.2266
     50  O         -5.9410   28.0620  106.5610 O.2   202  ASN202     -0.2867
     51  CB        -5.5410   27.4060  109.4990 C.3   202  ASN202      0.1155
     52  CG        -4.2060   28.1520  109.6470 C.2   202  ASN202      0.2627
     53  OD1       -4.1020   29.3520  109.3820 O.2   202  ASN202     -0.2716
     54  ND2       -3.1720   27.4200  110.1050 N.am  202  ASN202     -0.0877
     55  N         -9.4610   17.5990  106.1580 N.3   230  ASP230     -0.1239
     56  CA        -8.3570   17.8870  107.1040 C.3   230  ASP230      0.1674
     57  C         -8.9670   18.6980  108.2420 C.2   230  ASP230      0.2266
     58  O         -9.3650   19.8660  108.0390 O.2   230  ASP230     -0.2867
     59  CB        -7.2620   18.6680  106.3860 C.3   230  ASP230      0.1410
     60  CG        -6.0950   19.0740  107.3040 C.2   230  ASP230      0.3668
     61  OD1       -5.9130   18.4760  108.3960 O.co2 230  ASP230     -0.2456
     62  OD2       -5.3900   20.0490  106.9060 O.co2 230  ASP230     -0.2456
     63  N         -8.2480   19.5790  111.8840 N.3   232  PRO232     -0.2102
     64  CA        -7.5410   19.6930  113.1510 C.3   232  PRO232      0.1504
     65  C         -8.2210   20.5650  114.2040 C.2   232  PRO232      0.2575
     66  O         -7.8850   20.4720  115.4000 O.2   232  PRO232     -0.2718
     67  CB        -6.1880   20.2430  112.7510 C.3   232  PRO232      0.0282
     68  CG        -6.4590   21.0470  111.5570 C.3   232  PRO232      0.0208
     69  CD        -7.5670   20.3460  110.8160 C.3   232  PRO232      0.0893
     70  N         -9.2190   21.3440  113.7730 N.am  233  TYR233     -0.1977
     71  CA        -9.9970   22.1380  114.7220 C.3   233  TYR233      0.1639
     72  C        -11.3780   21.5630  114.8930 C.2   233  TYR233      0.2290
     73  O        -12.2590   22.2690  115.3940 O.2   233  TYR233     -0.2864
     74  CB       -10.1010   23.6060  114.2170 C.3   233  TYR233      0.0560
     75  CG        -8.7300   24.1640  113.8820 C.ar  233  TYR233     -0.0198
     76  CD1       -8.3140   24.2920  112.5650 C.ar  233  TYR233     -0.0009
     77  CD2       -7.8370   24.5250  114.8930 C.ar  233  TYR233     -0.0009
     78  CE1       -7.0390   24.7710  112.2540 C.ar  233  TYR233      0.0417
     79  CE2       -6.5780   25.0120  114.5910 C.ar  233  TYR233      0.0417
     80  CZ        -6.1970   25.1070  113.2550 C.ar  233  TYR233      0.1957
     81  OH        -4.9740   25.5470  112.9130 O.3   233  TYR233     -0.2866
     82  N         -6.3140   15.6190  114.4990 N.3   260  SER260     -0.1217
     83  CA        -5.1090   16.0950  115.1960 C.3   260  SER260      0.1889
     84  C         -5.3440   16.1400  116.7000 C.2   260  SER260      0.2288
     85  O         -6.3750   16.5360  117.1490 O.2   260  SER260     -0.2866
     86  CB        -4.7540   17.5290  114.7200 C.3   260  SER260      0.2089
     87  OG        -3.4860   17.9190  115.2250 O.3   260  SER260     -0.2183
     88  N         -3.1630   18.0830  118.2160 N.3   262  SER262     -0.1202
     89  CA        -2.1360   19.1140  118.4670 C.3   262  SER262      0.2020
     90  C         -2.7060   20.3290  119.1550 C.2   262  SER262      0.2618
     91  O         -1.9880   21.0150  119.9080 O.2   262  SER262     -0.2717
     92  CB        -1.4890   19.5640  117.1490 C.3   262  SER262      0.2103
     93  OG        -0.7110   18.4910  116.6260 O.3   262  SER262     -0.2182
     94  N         -3.9840   20.6100  118.8710 N.am  263  LYS263     -0.1979
     95  CA        -4.6810   21.7700  119.4370 C.3   263  LYS263      0.1596
     96  C         -5.2750   21.4570  120.8000 C.2   263  LYS263      0.2287
     97  O         -5.4990   22.3620  121.5820 O.2   263  LYS263     -0.2864
     98  CB        -5.7840   22.2290  118.4730 C.3   263  LYS263      0.0298
     99  CG        -5.3040   22.9620  117.2080 C.3   263  LYS263      0.0038
    100  CD        -4.0980   22.3940  116.5440 C.3   263  LYS263      0.0206
    101  CE        -3.5750   23.3530  115.4940 C.3   263  LYS263      0.1093
    102  NZ        -2.2080   22.9960  115.0770 N.3   263  LYS263     -0.1314
    103  N          0.7280   19.4700  120.7950 N.3   267  SER267     -0.1217
    104  CA         1.3160   19.6430  119.4750 C.3   267  SER267      0.1889
    105  C          2.7000   19.0600  119.3640 C.2   267  SER267      0.2288
    106  O          3.1170   18.5600  118.2870 O.2   267  SER267     -0.2866
    107  CB         1.3240   21.1450  119.0980 C.3   267  SER267      0.2089
    108  OG         1.8210   21.9500  120.1630 O.3   267  SER267     -0.2183
    109  N          3.5720   15.1670  118.6070 N.3   270  ARG270     -0.1231
    110  CA         3.5150   14.7200  117.2150 C.3   270  ARG270      0.1694
    111  C          2.7080   13.3970  117.1450 C.2   270  ARG270      0.2592
    112  O          3.2660   12.3710  116.8230 O.2   270  ARG270     -0.2718
    113  CB         4.9330   14.4890  116.6620 C.3   270  ARG270      0.0321
    114  CG         5.8620   15.7820  116.5680 C.3   270  ARG270      0.0489
    115  CD         5.0360   17.0190  116.2310 C.3   270  ARG270      0.2205
    116  NE         4.5870   17.0470  114.8700 N.pl3 270  ARG270     -0.0865
    117  CZ         3.4100   17.5250  114.4980 C.cat 270  ARG270      0.5346
    118  NH1        2.5520   18.0280  115.3800 N.pl3 270  ARG270      0.1354
    119  NH2        3.1080   17.5220  113.2310 N.pl3 270  ARG270      0.1354
    120  N          1.4150   13.4750  117.4580 N.am  271  ILE271     -0.1966
    121  CA         0.4750   12.3580  117.3380 C.3   271  ILE271      0.1727
    122  C         -0.7960   12.8910  116.7340 C.2   271  ILE271      0.2616
    123  O         -1.4920   13.7330  117.3390 O.2   271  ILE271     -0.2715
    124  CB         0.1130   11.7170  118.7240 C.3   271  ILE271      0.0290
    125  CG1        1.3700   11.2350  119.4720 C.3   271  ILE271      0.0022
    126  CG2       -1.0080   10.6260  118.5770 C.3   271  ILE271      0.0023
    127  CD1        2.2610   10.1590  118.8150 C.3   271  ILE271      0.0001
    128  N         -1.0980   12.4030  115.5370 N.am  272  GLY272     -0.1955
    129  CA        -2.3850   12.6020  114.8410 C.3   272  GLY272      0.1869
    130  C         -2.8930   11.2500  114.3570 C.2   272  GLY272      0.2309
    131  O         -2.3320   10.1860  114.6790 O.2   272  GLY272     -0.2863
@<TRIPOS>BOND
     1    23    22    2
     2    31    30    2
     3    22    21    1
     4    28    29    1
     5    30    29    1
     6    21    24    1
     7    21    20    1
     8    40    41    1
     9    29    32    1
    10    27    25    1
    11    24    25    1
    12    32    33    1
    13    25    26    1
    14    55    56    1
    15    41    42    1
    16    41    44    1
    17    18    17    2
    18    59    56    1
    19    59    60    1
    20    46    44    1
    21    34    33   ar
    22    34    36   ar
    23    50    49    2
    24    43    42    2
    25    33    35   ar
    26    14    13    2
    27    44    45    1
    28    62    60   ar
    29    56    57    1
    30    36    38   ar
    31    60    61   ar
    32    17    16    1
    33    17    19   am
    34    49    48    1
    35    35    37   ar
    36    16    15    1
    37    58    57    2
    38    13    12    1
    39    38    37   ar
    40    38    39    1
    41    47    48    1
    42    12    15    1
    43    12    11    1
    44    48    51    1
    45     8     7    2
    46    53    52    2
    47    51    52    1
    48    52    54   am
    49     7    11   am
    50     7     6    1
    51    69    68    1
    52    69    63    1
    53     6     9    1
    54     6     5    1
    55    10     9    1
    56    68    67    1
    57     4     3    2
    58    63    64    1
    59    78    76   ar
    60    78    80   ar
    61     5     3   am
    62     3     2    1
    63    76    75   ar
    64    67    64    1
    65    81    80    1
    66    64    65    1
    67   119   117    1
    68    80    79   ar
    69     2     1    1
    70    70    65   am
    71    70    71    1
    72    75    74    1
    73    75    77   ar
    74    65    66    2
    75    74    71    1
    76   130   131    2
    77   130   129    1
    78   117   116    2
    79   117   118    1
    80    82    83    1
    81    79    77   ar
    82    86    83    1
    83    86    87    1
    84    71    72    1
    85   129   128    1
    86   116   115    1
    87    72    73    2
    88   102   101    1
    89    83    84    1
    90   101   100    1
    91   128   122   am
    92   115   114    1
    93   100    99    1
    94   114   113    1
    95    93    92    1
    96   113   110    1
    97    84    85    2
    98   122   121    1
    99   122   123    2
   100   112   111    2
   101   111   110    1
   102   111   120   am
   103    92    89    1
   104    99    98    1
   105   110   109    1
   106   121   120    1
   107   121   124    1
   108    88    89    1
   109   106   105    2
   110    89    90    1
   111    98    95    1
   112   126   124    1
   113   124   125    1
   114   127   125    1
   115    94    90   am
   116    94    95    1
   117   107   104    1
   118   107   108    1
   119    90    91    2
   120   105   104    1
   121    95    96    1
   122   104   103    1
   123    96    97    2
