@<TRIPOS>MOLECULE
tmp/2r2wA00.pdb
 138 138 0 0 0
SMALL
GASTEIGER

@<TRIPOS>ATOM
      1  N         22.5180    9.1990   36.9680 N.3    46  HIS46      -0.1241
      2  CA        22.8520   10.3420   36.1220 C.3    46  HIS46       0.1621
      3  C         21.8800   10.5200   34.9590 C.2    46  HIS46       0.2264
      4  O         21.8540   11.5710   34.3230 O.2    46  HIS46      -0.2867
      5  CB        24.3110   10.2830   35.6160 C.3    46  HIS46       0.0745
      6  CG        24.5530    9.3430   34.4730 C.ar   46  HIS46       0.0817
      7  ND1       25.1640    8.1160   34.6350 N.ar   46  HIS46      -0.2268
      8  CD2       24.3680    9.4940   33.1390 C.ar   46  HIS46       0.1154
      9  CE1       25.3550    7.5580   33.4530 C.ar   46  HIS46       0.1986
     10  NE2       24.8810    8.3740   32.5280 N.ar   46  HIS46      -0.2212
     11  N         31.4560    9.4440   38.3640 N.3    94  HIS94      -0.1241
     12  CA        30.0950    9.5650   38.8590 C.3    94  HIS94       0.1621
     13  C         30.0460    8.5490   39.9910 C.2    94  HIS94       0.2264
     14  O         30.3780    7.3770   39.7980 O.2    94  HIS94      -0.2867
     15  CB        29.0910    9.2050   37.7610 C.3    94  HIS94       0.0745
     16  CG        29.0020   10.2310   36.6730 C.ar   94  HIS94       0.0817
     17  ND1       27.8800   11.0080   36.4730 N.ar   94  HIS94      -0.2268
     18  CD2       29.9090   10.6390   35.7540 C.ar   94  HIS94       0.1154
     19  CE1       28.1010   11.8490   35.4790 C.ar   94  HIS94       0.1986
     20  NE2       29.3250   11.6450   35.0250 N.ar   94  HIS94      -0.2212
     21  N         33.9590   -0.8650   23.0790 N.3   192  ASP192     -0.1225
     22  CA        33.7090   -0.2090   24.3610 C.3   192  ASP192      0.1805
     23  C         32.2980    0.3820   24.3880 C.2   192  ASP192      0.2598
     24  O         31.6140    0.4150   23.3680 O.2   192  ASP192     -0.2718
     25  CB        34.7440    0.9170   24.5140 C.3   192  ASP192      0.1424
     26  CG        34.8850    1.4280   25.9370 C.2   192  ASP192      0.3668
     27  OD1       34.3280    0.8250   26.8790 O.co2 192  ASP192     -0.2456
     28  OD2       35.5900    2.4480   26.1070 O.co2 192  ASP192     -0.2456
     29  N         31.8650    0.8350   25.5610 N.am  193  SER193     -0.1938
     30  CA        30.5670    1.4860   25.6890 C.3   193  SER193      0.2055
     31  C         30.8180    2.9470   25.2770 C.2   193  SER193      0.2643
     32  O         31.9700    3.3720   25.1790 O.2   193  SER193     -0.2714
     33  CB        30.0730    1.4210   27.1390 C.3   193  SER193      0.2130
     34  OG        30.9990    2.0320   28.0260 O.3   193  SER193     -0.2179
     35  N         29.7600    3.7090   25.0220 N.am  194  CYS194     -0.1953
     36  CA        29.9240    5.1050   24.6320 C.3   194  CYS194      0.1843
     37  C         28.6630    5.8870   25.0030 C.2   194  CYS194      0.2625
     38  O         27.7180    5.3190   25.5570 O.2   194  CYS194     -0.2714
     39  CB        30.2050    5.2020   23.1250 C.3   194  CYS194      0.0997
     40  SG        30.9810    6.7630   22.5670 S.3   194  CYS194     -0.0797
     41  N         28.6520    7.1850   24.7120 N.am  195  GLN195     -0.1963
     42  CA        27.5010    8.0270   25.0430 C.3   195  GLN195      0.1733
     43  C         26.1870    7.3950   24.5900 C.2   195  GLN195      0.2616
     44  O         26.0570    6.9550   23.4470 O.2   195  GLN195     -0.2715
     45  CB        27.6460    9.4140   24.4060 C.3   195  GLN195      0.0408
     46  CG        28.4710   10.4190   25.2100 C.3   195  GLN195      0.0908
     47  CD        29.9240   10.0030   25.4030 C.2   195  GLN195      0.2608
     48  OE1       30.6060    9.6160   24.4530 O.2   195  GLN195     -0.2717
     49  NE2       30.4060   10.0990   26.6370 N.am  195  GLN195     -0.0878
     50  N         25.2120    7.3540   25.4910 N.am  196  GLY196     -0.1955
     51  CA        23.9250    6.7680   25.1480 C.3   196  GLY196      0.1869
     52  C         23.7740    5.3540   25.6810 C.2   196  GLY196      0.2309
     53  O         22.6720    4.7990   25.6960 O.2   196  GLY196     -0.2863
     54  N         24.6790    4.5400   28.8240 N.3   198  SER198     -0.1217
     55  CA        24.4900    4.6250   30.2650 C.3   198  SER198      0.1889
     56  C         23.2350    3.9210   30.7790 C.2   198  SER198      0.2288
     57  O         22.2000    3.8870   30.1120 O.2   198  SER198     -0.2866
     58  CB        24.4740    6.0880   30.7030 C.3   198  SER198      0.2089
     59  OG        23.5920    6.8560   29.9130 O.3   198  SER198     -0.2183
     60  N         26.4340    0.5790   33.2090 N.3   216  VAL216     -0.1231
     61  CA        27.2370    1.5520   32.4630 C.3   216  VAL216      0.1692
     62  C         27.1290    2.9140   33.1510 C.2   216  VAL216      0.2593
     63  O         26.0370    3.4780   33.2720 O.2   216  VAL216     -0.2718
     64  CB        26.7670    1.6700   30.9840 C.3   216  VAL216      0.0266
     65  CG1       27.6590    2.6520   30.2310 C.3   216  VAL216      0.0020
     66  CG2       26.8260    0.3060   30.3040 C.3   216  VAL216      0.0020
     67  N         28.2680    3.4470   33.5890 N.am  217  SER217     -0.1938
     68  CA        28.2790    4.7140   34.3150 C.3   217  SER217      0.2055
     69  C         29.0960    5.8540   33.6970 C.2   217  SER217      0.2643
     70  O         28.5520    6.9270   33.4140 O.2   217  SER217     -0.2714
     71  CB        28.7540    4.4590   35.7540 C.3   217  SER217      0.2130
     72  OG        28.7560    5.6450   36.5340 O.3   217  SER217     -0.2179
     73  N         30.3940    5.6380   33.4960 N.am  218  TRP218     -0.1959
     74  CA        31.2360    6.6910   32.9320 C.3   218  TRP218      0.1771
     75  C         32.5440    6.2100   32.3090 C.2   218  TRP218      0.2620
     76  O         32.9100    5.0440   32.4170 O.2   218  TRP218     -0.2715
     77  CB        31.5630    7.7470   34.0010 C.3   218  TRP218      0.0590
     78  CG        32.3480    7.2420   35.1930 C.ar  218  TRP218      0.0006
     79  CD1       31.8440    6.6400   36.3110 C.ar  218  TRP218      0.0946
     80  CD2       33.7690    7.3330   35.3940 C.ar  218  TRP218      0.0152
     81  NE1       32.8590    6.3570   37.1970 N.ar  218  TRP218     -0.2442
     82  CE2       34.0490    6.7700   36.6590 C.ar  218  TRP218      0.0810
     83  CE3       34.8300    7.8340   34.6270 C.ar  218  TRP218      0.0012
     84  CZ2       35.3510    6.6960   37.1790 C.ar  218  TRP218      0.0191
     85  CZ3       36.1280    7.7610   35.1440 C.ar  218  TRP218      0.0001
     86  CH2       36.3730    7.1950   36.4110 C.ar  218  TRP218      0.0015
     87  N         33.2340    7.1330   31.6470 N.am  219  GLY219     -0.1940
     88  CA        34.5000    6.8120   31.0160 C.3   219  GLY219      0.2014
     89  C         34.9860    7.9470   30.1360 C.2   219  GLY219      0.2639
     90  O         34.1850    8.6710   29.5380 O.2   219  GLY219     -0.2714
     91  N         36.3020    8.1070   30.0630 N.am  220  ARG220     -0.1963
     92  CA        36.9160    9.1450   29.2470 C.3   220  ARG220      0.1729
     93  C         36.8240    8.7350   27.7740 C.2   220  ARG220      0.2617
     94  O         37.3130    7.6710   27.3860 O.2   220  ARG220     -0.2715
     95  CB        38.3810    9.3220   29.6630 C.3   220  ARG220      0.0348
     96  CG        39.2320   10.0770   28.6540 C.3   220  ARG220      0.0492
     97  CD        38.8410   11.5400   28.5360 C.3   220  ARG220      0.2205
     98  NE        39.1730   12.0690   27.2140 N.pl3 220  ARG220     -0.0865
     99  CZ        40.3880   12.0370   26.6710 C.cat 220  ARG220      0.5346
    100  NH1       41.4070   11.5020   27.3350 N.pl3 220  ARG220      0.1354
    101  NH2       40.5840   12.5340   25.4550 N.pl3 220  ARG220      0.1354
    102  N         36.1880    9.5720   26.9600 N.am  221  GLY221     -0.1940
    103  CA        36.0400    9.2590   25.5510 C.3   221  GLY221      0.2014
    104  C         35.4330    7.8820   25.3560 C.2   221  GLY221      0.2639
    105  O         34.7650    7.3660   26.2570 O.2   221  GLY221     -0.2714
    106  N         35.6750    7.2860   24.1890 N.am  222  CYS222     -0.1967
    107  CA        35.1600    5.9600   23.8550 C.3   222  CYS222      0.1712
    108  C         36.1810    5.1200   23.0880 C.2   222  CYS222      0.2296
    109  O         36.6210    5.5040   22.0110 O.2   222  CYS222     -0.2864
    110  CB        33.8980    6.0850   23.0010 C.3   222  CYS222      0.0983
    111  SG        32.5590    7.0010   23.8190 S.3   222  CYS222     -0.0798
    112  N         41.9420    3.8780   28.7130 N.3   227  LYS227     -0.1231
    113  CA        40.7890    4.5620   29.2850 C.3   227  LYS227      0.1678
    114  C         39.5820    3.6320   29.1940 C.2   227  LYS227      0.2434
    115  O         38.7720    3.7210   28.2720 O.2   227  LYS227     -0.2733
    116  CB        40.5180    5.8680   28.5330 C.3   227  LYS227      0.0284
    117  CG        41.7100    6.8240   28.4850 C.3   227  LYS227      0.0035
    118  CD        42.1320    7.2800   29.8800 C.3   227  LYS227      0.0206
    119  CE        43.4760    8.0200   29.8360 C.3   227  LYS227      0.1093
    120  NZ        43.9040    8.4650   31.1860 N.3   227  LYS227     -0.1314
    121  N         39.4590    2.7130   30.1580 N.am  228  PRO228     -0.2718
    122  CA        38.3680    1.7410   30.2190 C.3   228  PRO228      0.1535
    123  C         37.0070    2.3590   30.5260 C.2   228  PRO228      0.2599
    124  O         36.9080    3.5010   30.9790 O.2   228  PRO228     -0.2715
    125  CB        38.7970    0.8040   31.3510 C.3   228  PRO228      0.0310
    126  CG        40.2980    0.9800   31.4210 C.3   228  PRO228      0.0237
    127  CD        40.4430    2.4570   31.2230 C.3   228  PRO228      0.0939
    128  N         35.9570    1.5890   30.2810 N.am  229  GLY229     -0.1941
    129  CA        34.6380    2.0660   30.6240 C.3   229  GLY229      0.2014
    130  C         34.5570    1.7790   32.1140 C.2   229  GLY229      0.2638
    131  O         35.2070    0.8470   32.5920 O.2   229  GLY229     -0.2714
    132  N         33.8070    2.5800   32.8620 N.am  230  VAL230     -0.1977
    133  CA        33.6700    2.3440   34.2970 C.3   230  VAL230      0.1596
    134  C         32.2060    2.0140   34.5980 C.2   230  VAL230      0.2287
    135  O         31.2850    2.6320   34.0490 O.2   230  VAL230     -0.2864
    136  CB        34.1290    3.5670   35.1150 C.3   230  VAL230      0.0276
    137  CG1       34.0640    3.2510   36.6060 C.3   230  VAL230      0.0022
    138  CG2       35.5580    3.9500   34.7120 C.3   230  VAL230      0.0022
@<TRIPOS>BOND
     1   109   108    2
     2    40    39    1
     3    40   111    1
     4   110   111    1
     5   110   107    1
     6    21    22    1
     7   108   107    1
     8    39    36    1
     9    24    23    2
    10    44    43    2
    11   107   106    1
    12   106   104   am
    13    22    23    1
    14    22    25    1
    15    23    29   am
    16    45    42    1
    17    45    46    1
    18    48    47    2
    19    25    26    1
    20    43    42    1
    21    43    50   am
    22    36    37    1
    23    36    35    1
    24    41    37   am
    25    41    42    1
    26    37    38    2
    27    35    31   am
    28    51    50    1
    29    51    52    1
    30    32    31    2
    31    46    47    1
    32    31    30    1
    33   104   103    1
    34   104   105    2
    35    47    49   am
    36   101    99    1
    37   103   102    1
    38    29    30    1
    39    52    53    2
    40    30    33    1
    41    26    28   ar
    42    26    27   ar
    43    99    98    2
    44    99   100    1
    45   102    93   am
    46    33    34    1
    47    98    97    1
    48    94    93    2
    49    93    92    1
    50   115   114    2
    51   117   116    1
    52   117   118    1
    53   116   113    1
    54    97    96    1
    55    96    95    1
    56   112   113    1
    57    54    55    1
    58   114   113    1
    59   114   121   am
    60    92    95    1
    61    92    91    1
    62    90    89    2
    63   119   118    1
    64   119   120    1
    65    59    58    1
    66    91    89   am
    67    57    56    2
    68    89    88    1
    69   121   122    1
    70   121   127    1
    71   122   123    1
    72   122   125    1
    73    65    64    1
    74    55    58    1
    75    55    56    1
    76   128   123   am
    77   128   129    1
    78    66    64    1
    79   123   124    2
    80   129   130    1
    81    64    61    1
    82    88    87    1
    83   127   126    1
    84   125   126    1
    85    87    75   am
    86   130   131    2
    87   130   132   am
    88    75    76    2
    89    75    74    1
    90    61    62    1
    91    61    60    1
    92    10     8   ar
    93    10     9   ar
    94   132   133    1
    95    74    73    1
    96    74    77    1
    97     8     6   ar
    98    62    63    2
    99    62    67   am
   100    70    69    2
   101     9     7   ar
   102    73    69   am
   103    67    68    1
   104    69    68    1
   105    77    78    1
   106   135   134    2
   107   133   134    1
   108   133   136    1
   109    68    71    1
   110     4     3    2
   111     6     7   ar
   112     6     5    1
   113    83    85   ar
   114    83    80   ar
   115   138   136    1
   116     3     2    1
   117    20    19   ar
   118    20    18   ar
   119   136   137    1
   120    85    86   ar
   121    78    80   ar
   122    78    79   ar
   123    80    82   ar
   124    19    17   ar
   125     5     2    1
   126    71    72    1
   127    18    16   ar
   128     2     1    1
   129    79    81   ar
   130    86    84   ar
   131    17    16   ar
   132    82    84   ar
   133    82    81   ar
   134    16    15    1
   135    15    12    1
   136    11    12    1
   137    12    13    1
   138    14    13    2
