@<TRIPOS>MOLECULE
tmp/2r3aA00.pdb
 210 209 0 0 0
SMALL
GASTEIGER

@<TRIPOS>ATOM
      1  N         39.5510   41.3580   44.4490 N.3   130  ARG130     -0.1245
      2  CA        39.3650   41.9130   45.7670 C.3   130  ARG130      0.1563
      3  C         38.5570   43.2200   45.6450 C.2   130  ARG130      0.2260
      4  O         39.0140   44.1360   44.9630 O.2   130  ARG130     -0.2867
      5  CB        40.7170   42.1710   46.4410 C.3   130  ARG130      0.0307
      6  CG        40.6310   42.4740   47.9120 C.3   130  ARG130      0.0489
      7  CD        40.3600   41.1960   48.6960 C.3   130  ARG130      0.2205
      8  NE        40.4680   41.4500   50.1390 N.pl3 130  ARG130     -0.0865
      9  CZ        40.0290   40.6150   51.0760 C.cat 130  ARG130      0.5346
     10  NH1       39.3870   39.4910   50.7380 N.pl3 130  ARG130      0.1354
     11  NH2       40.1770   40.9350   52.3520 N.pl3 130  ARG130      0.1354
     12  N         35.5630   47.1240   51.1610 N.3   134  GLY134     -0.1210
     13  CA        35.3880   46.3010   52.3420 C.3   134  GLY134      0.1956
     14  C         34.4580   45.1120   52.2170 C.2   134  GLY134      0.2612
     15  O         34.0260   44.5940   53.2290 O.2   134  GLY134     -0.2717
     16  N         34.1690   44.6520   50.9930 N.am  135  ARG135     -0.1965
     17  CA        33.3040   43.4890   50.8320 C.3   135  ARG135      0.1729
     18  C         34.0950   42.1920   50.5390 C.2   135  ARG135      0.2617
     19  O         33.5120   41.1950   50.0960 O.2   135  ARG135     -0.2715
     20  CB        32.2620   43.7420   49.7380 C.3   135  ARG135      0.0348
     21  CG        31.1850   44.7740   50.1410 C.3   135  ARG135      0.0492
     22  CD        30.3030   45.1660   48.9420 C.3   135  ARG135      0.2205
     23  NE        31.1170   45.8190   47.9160 N.pl3 135  ARG135     -0.0865
     24  CZ        31.2680   45.3830   46.6660 C.cat 135  ARG135      0.5346
     25  NH1       30.6260   44.2970   46.2320 N.pl3 135  ARG135      0.1354
     26  NH2       32.0750   46.0410   45.8430 N.pl3 135  ARG135      0.1354
     27  N         35.4110   42.2100   50.7940 N.am  136  GLY136     -0.1940
     28  CA        36.2680   41.0180   50.6280 C.3   136  GLY136      0.2014
     29  C         36.4420   40.6790   49.1490 C.2   136  GLY136      0.2638
     30  O         36.5260   41.5800   48.3070 O.2   136  GLY136     -0.2714
     31  N         36.5310   39.3850   48.8480 N.am  137  TRP137     -0.1973
     32  CA        36.5090   38.8990   47.4720 C.3   137  TRP137      0.1640
     33  C         35.1260   39.0540   46.8730 C.2   137  TRP137      0.2290
     34  O         34.1170   38.9300   47.5730 O.2   137  TRP137     -0.2864
     35  CB        36.8900   37.4210   47.4010 C.3   137  TRP137      0.0576
     36  CG        38.2490   37.1170   47.9650 C.ar  137  TRP137      0.0006
     37  CD1       38.5200   36.4660   49.1280 C.ar  137  TRP137      0.0946
     38  CD2       39.5280   37.4810   47.3970 C.ar  137  TRP137      0.0152
     39  NE1       39.8980   36.3770   49.3200 N.ar  137  TRP137     -0.2442
     40  CE2       40.5300   36.9920   48.2670 C.ar  137  TRP137      0.0810
     41  CE3       39.9160   38.1350   46.2170 C.ar  137  TRP137      0.0012
     42  CZ2       41.9000   37.1340   47.9920 C.ar  137  TRP137      0.0191
     43  CZ3       41.2720   38.2730   45.9440 C.ar  137  TRP137      0.0001
     44  CH2       42.2460   37.7820   46.8290 C.ar  137  TRP137      0.0015
     45  N         24.9800   27.3730   41.9470 N.3   154  TYR154     -0.1241
     46  CA        25.3800   27.4000   43.3600 C.3   154  TYR154      0.1605
     47  C         25.6270   25.9280   43.7750 C.2   154  TYR154      0.2264
     48  O         24.7700   25.0460   43.5680 O.2   154  TYR154     -0.2867
     49  CB        24.3050   28.0520   44.2340 C.3   154  TYR154      0.0534
     50  CG        24.8370   28.5270   45.5830 C.ar  154  TYR154     -0.0201
     51  CD1       25.2450   29.8520   45.7650 C.ar  154  TYR154     -0.0009
     52  CD2       24.9760   27.6350   46.6550 C.ar  154  TYR154     -0.0009
     53  CE1       25.7690   30.2930   46.9970 C.ar  154  TYR154      0.0417
     54  CE2       25.4780   28.0550   47.8890 C.ar  154  TYR154      0.0417
     55  CZ        25.8800   29.3810   48.0560 C.ar  154  TYR154      0.1957
     56  OH        26.3720   29.7720   49.2840 O.3   154  TYR154     -0.2866
     57  N         29.1820   35.1090   60.9230 N.3   173  ASN173     -0.1225
     58  CA        28.2080   35.6250   59.9450 C.3   173  ASN173      0.1785
     59  C         28.4710   35.2560   58.4850 C.2   173  ASN173      0.2597
     60  O         27.5430   34.8790   57.7810 O.2   173  ASN173     -0.2718
     61  CB        28.0220   37.1270   60.0700 C.3   173  ASN173      0.1169
     62  CG        26.9260   37.4690   61.0480 C.2   173  ASN173      0.2627
     63  OD1       26.6460   36.6870   61.9620 O.2   173  ASN173     -0.2716
     64  ND2       26.2920   38.6160   60.8620 N.am  173  ASN173     -0.0877
     65  N         29.7250   35.3710   58.0660 N.am  174  LYS174     -0.1980
     66  CA        30.1560   34.9610   56.7200 C.3   174  LYS174      0.1596
     67  C         29.8430   33.4780   56.4890 C.2   174  LYS174      0.2287
     68  O         29.2940   33.1380   55.4470 O.2   174  LYS174     -0.2864
     69  CB        31.6550   35.2980   56.4570 C.3   174  LYS174      0.0298
     70  CG        32.1450   34.8690   55.0520 C.3   174  LYS174      0.0038
     71  CD        33.5610   35.3490   54.6650 C.3   174  LYS174      0.0206
     72  CE        34.6060   34.3500   55.1590 C.3   174  LYS174      0.1093
     73  NZ        35.5510   33.9620   54.1070 N.3   174  LYS174     -0.1314
     74  N         26.3240   32.7080   55.6700 N.3   177  THR177     -0.1203
     75  CA        25.9920   33.0890   54.2790 C.3   177  THR177      0.1994
     76  C         26.2520   31.9750   53.2490 C.2   177  THR177      0.2617
     77  O         25.6610   31.9900   52.1760 O.2   177  THR177     -0.2717
     78  CB        26.6770   34.4260   53.8000 C.3   177  THR177      0.1784
     79  OG1       28.0930   34.2340   53.6860 O.3   177  THR177     -0.2211
     80  CG2       26.3300   35.5990   54.7240 C.3   177  THR177      0.0376
     81  N         27.1020   31.0000   53.5850 N.am  178  TYR178     -0.1975
     82  CA        27.3350   29.8670   52.6880 C.3   178  TYR178      0.1639
     83  C         26.2720   28.7660   52.7710 C.2   178  TYR178      0.2290
     84  O         26.3390   27.7740   52.0230 O.2   178  TYR178     -0.2864
     85  CB        28.7040   29.2500   52.9520 C.3   178  TYR178      0.0560
     86  CG        29.8850   30.1830   52.8220 C.ar  178  TYR178     -0.0198
     87  CD1       30.2290   30.7640   51.6010 C.ar  178  TYR178     -0.0009
     88  CD2       30.6990   30.4410   53.9140 C.ar  178  TYR178     -0.0009
     89  CE1       31.3620   31.6050   51.4860 C.ar  178  TYR178      0.0417
     90  CE2       31.8300   31.2890   53.8070 C.ar  178  TYR178      0.0417
     91  CZ        32.1430   31.8570   52.6020 C.ar  178  TYR178      0.1957
     92  OH        33.2500   32.6860   52.5140 O.3   178  TYR178     -0.2866
     93  N         30.5900   30.5740   42.7740 N.3   200  SER200     -0.1202
     94  CA        29.4310   31.1370   43.5100 C.3   200  SER200      0.2020
     95  C         29.7500   31.3780   44.9980 C.2   200  SER200      0.2619
     96  O         29.1260   32.2120   45.6260 O.2   200  SER200     -0.2717
     97  CB        28.1830   30.2180   43.3680 C.3   200  SER200      0.2103
     98  OG        28.4140   28.9860   44.0320 O.3   200  SER200     -0.2182
     99  N         30.7340   30.6510   45.5300 N.am  201  HIS201     -0.1961
    100  CA        31.2540   30.8110   46.9070 C.3   201  HIS201      0.1787
    101  C         31.7830   32.2660   47.1050 C.2   201  HIS201      0.2620
    102  O         31.7990   32.7740   48.2170 O.2   201  HIS201     -0.2715
    103  CB        32.4040   29.7730   47.1120 C.3   201  HIS201      0.0785
    104  CG        33.1780   29.9280   48.3980 C.ar  201  HIS201      0.0821
    105  ND1       32.8690   29.2300   49.5470 N.ar  201  HIS201     -0.2267
    106  CD2       34.2670   30.6770   48.7000 C.ar  201  HIS201      0.1154
    107  CE1       33.7420   29.5260   50.4950 C.ar  201  HIS201      0.1986
    108  NE2       34.6000   30.4090   50.0100 N.ar  201  HIS201     -0.2212
    109  N         32.1890   32.9430   46.0240 N.am  202  PHE202     -0.1960
    110  CA        32.7780   34.3090   46.1720 C.3   202  PHE202      0.1771
    111  C         31.8540   35.4560   45.7180 C.2   202  PHE202      0.2619
    112  O         32.2260   36.6290   45.7850 O.2   202  PHE202     -0.2715
    113  CB        34.1170   34.3800   45.4440 C.3   202  PHE202      0.0574
    114  CG        35.1160   33.3870   45.9610 C.ar  202  PHE202     -0.0200
    115  CD1       35.9110   33.7060   47.0410 C.ar  202  PHE202     -0.0042
    116  CD2       35.2300   32.1240   45.3950 C.ar  202  PHE202     -0.0042
    117  CE1       36.8530   32.7750   47.5380 C.ar  202  PHE202     -0.0003
    118  CE2       36.1760   31.1900   45.9030 C.ar  202  PHE202     -0.0003
    119  CZ        36.9630   31.5300   46.9630 C.ar  202  PHE202     -0.0000
    120  N         30.6410   35.1110   45.3000 N.am  203  VAL203     -0.1963
    121  CA        29.6680   36.1160   44.8390 C.3   203  VAL203      0.1727
    122  C         29.0320   36.8700   45.9760 C.2   203  VAL203      0.2616
    123  O         28.4720   36.2460   46.8670 O.2   203  VAL203     -0.2715
    124  CB        28.5530   35.4580   43.9660 C.3   203  VAL203      0.0290
    125  CG1       27.4970   36.4410   43.6580 C.3   203  VAL203      0.0023
    126  CG2       29.1870   34.9500   42.6730 C.3   203  VAL203      0.0023
    127  N         29.1170   38.2140   45.9240 N.am  204  ASN204     -0.1958
    128  CA        28.5550   39.1030   46.9600 C.3   204  ASN204      0.1819
    129  C         27.0640   39.3710   46.8220 C.2   204  ASN204      0.2621
    130  O         26.4870   39.1390   45.7940 O.2   204  ASN204     -0.2715
    131  CB        29.3170   40.4420   46.9940 C.3   204  ASN204      0.1195
    132  CG        30.7320   40.2920   47.5290 C.2   204  ASN204      0.2630
    133  OD1       31.6930   40.9960   47.1140 O.2   204  ASN204     -0.2716
    134  ND2       30.8740   39.3940   48.4660 N.am  204  ASN204     -0.0877
    135  N         26.4670   39.8220   47.9130 N.am  205  HIS205     -0.1973
    136  CA        25.0810   40.2360   47.9920 C.3   205  HIS205      0.1656
    137  C         24.8870   41.6070   47.4180 C.2   205  HIS205      0.2291
    138  O         25.6790   42.5260   47.6740 O.2   205  HIS205     -0.2864
    139  CB        24.6490   40.2950   49.4650 C.3   205  HIS205      0.0771
    140  CG        23.3570   41.0170   49.6650 C.ar  205  HIS205      0.0820
    141  ND1       22.1270   40.3970   49.5450 N.ar  205  HIS205     -0.2267
    142  CD2       23.1030   42.3250   49.9100 C.ar  205  HIS205      0.1154
    143  CE1       21.1750   41.2970   49.7260 C.ar  205  HIS205      0.1986
    144  NE2       21.7440   42.4740   49.9320 N.ar  205  HIS205     -0.2212
    145  N         23.9640   38.4990   43.8020 N.3   244  PHE244     -0.1241
    146  CA        22.5980   38.0360   43.9450 C.3   244  PHE244      0.1605
    147  C         22.0810   38.4820   45.2960 C.2   244  PHE244      0.2264
    148  O         22.8710   38.9420   46.1260 O.2   244  PHE244     -0.2867
    149  CB        22.4680   36.5030   43.6790 C.3   244  PHE244      0.0534
    150  CG        22.9530   35.6150   44.8050 C.ar  244  PHE244     -0.0203
    151  CD1       22.0480   35.1310   45.7610 C.ar  244  PHE244     -0.0042
    152  CD2       24.3040   35.2270   44.8830 C.ar  244  PHE244     -0.0042
    153  CE1       22.4800   34.2850   46.8130 C.ar  244  PHE244     -0.0003
    154  CE2       24.7640   34.3790   45.9220 C.ar  244  PHE244     -0.0003
    155  CZ        23.8440   33.9160   46.9000 C.ar  244  PHE244     -0.0000
    156  N         20.9810   37.7560   48.7130 N.3   246  TYR246     -0.1241
    157  CA        21.1270   36.6750   49.7170 C.3   246  TYR246      0.1605
    158  C         19.8150   36.3190   50.4300 C.2   246  TYR246      0.2264
    159  O         19.6760   35.2150   50.9830 O.2   246  TYR246     -0.2867
    160  CB        22.1860   37.0470   50.7820 C.3   246  TYR246      0.0534
    161  CG        23.6530   36.9580   50.3580 C.ar  246  TYR246     -0.0201
    162  CD1       24.0330   36.7700   49.0190 C.ar  246  TYR246     -0.0009
    163  CD2       24.6560   37.1460   51.3060 C.ar  246  TYR246     -0.0009
    164  CE1       25.3940   36.7480   48.6490 C.ar  246  TYR246      0.0417
    165  CE2       26.0010   37.1040   50.9560 C.ar  246  TYR246      0.0417
    166  CZ        26.3520   36.8870   49.6430 C.ar  246  TYR246      0.1957
    167  OH        27.6700   36.8610   49.3830 O.3   246  TYR246     -0.2866
    168  N         24.9970   42.4350   59.6510 N.3   256  THR256     -0.1203
    169  CA        26.0940   42.8870   58.7950 C.3   256  THR256      0.1994
    170  C         25.5840   44.0090   57.9240 C.2   256  THR256      0.2618
    171  O         24.5610   43.8710   57.2330 O.2   256  THR256     -0.2717
    172  CB        26.6470   41.7390   57.8640 C.3   256  THR256      0.1784
    173  OG1       27.1290   40.6440   58.6530 O.3   256  THR256     -0.2211
    174  CG2       27.7910   42.2500   56.9940 C.3   256  THR256      0.0376
    175  N         26.3130   45.1140   57.9300 N.am  257  VAL257     -0.1965
    176  CA        25.9150   46.2690   57.1630 C.3   257  VAL257      0.1727
    177  C         26.1830   46.0050   55.6700 C.2   257  VAL257      0.2616
    178  O         27.2460   45.5270   55.2790 O.2   257  VAL257     -0.2715
    179  CB        26.6150   47.5710   57.6690 C.3   257  VAL257      0.0290
    180  CG1       26.3620   48.7380   56.7350 C.3   257  VAL257      0.0023
    181  CG2       26.1760   47.9150   59.1400 C.3   257  VAL257      0.0023
    182  N         25.1740   46.2740   54.8570 N.am  258  CYS258     -0.1954
    183  CA        25.2870   46.1030   53.4310 C.3   258  CYS258      0.1843
    184  C         26.0120   47.2600   52.7730 C.2   258  CYS258      0.2625
    185  O         25.6390   48.4350   52.9560 O.2   258  CYS258     -0.2714
    186  CB        23.9060   45.9590   52.8060 C.3   258  CYS258      0.0997
    187  SG        24.1320   45.5420   51.0940 S.3   258  CYS258     -0.0797
    188  N         27.0550   46.9340   52.0090 N.am  259  LYS259     -0.1963
    189  CA        27.8230   47.9510   51.2840 C.3   259  LYS259      0.1728
    190  C         27.6470   47.7940   49.7590 C.2   259  LYS259      0.2616
    191  O         28.5350   48.1270   48.9530 O.2   259  LYS259     -0.2715
    192  CB        29.3130   47.9380   51.7220 C.3   259  LYS259      0.0311
    193  CG        29.5090   48.2350   53.2370 C.3   259  LYS259      0.0038
    194  CD        30.9710   48.4630   53.6150 C.3   259  LYS259      0.0206
    195  CE        31.4290   49.8720   53.1040 C.3   259  LYS259      0.1093
    196  NZ        32.7100   50.3930   53.7160 N.3   259  LYS259     -0.1314
    197  N         26.4780   47.3050   49.3560 N.am  260  CYS260     -0.1968
    198  CA        26.2690   46.9920   47.9450 C.3   260  CYS260      0.1712
    199  C         26.3430   48.2330   47.0540 C.2   260  CYS260      0.2296
    200  O         26.6720   48.1290   45.8610 O.2   260  CYS260     -0.2864
    201  CB        24.9790   46.1660   47.7000 C.3   260  CYS260      0.0983
    202  SG        23.3770   47.1400   47.7250 S.3   260  CYS260     -0.0798
    203  N         22.5710   42.9110   55.3570 N.3   269  LEU269     -0.1245
    204  CA        22.4910   41.6100   54.6610 C.3   269  LEU269      0.1561
    205  C         21.4980   40.6410   55.3210 C.2   269  LEU269      0.2260
    206  O         20.9000   39.8070   54.6170 O.2   269  LEU269     -0.2867
    207  CB        23.8730   40.9160   54.5500 C.3   269  LEU269      0.0270
    208  CG        25.1120   41.6330   54.0050 C.3   269  LEU269      0.0019
    209  CD1       26.1760   40.6120   53.6580 C.3   269  LEU269      0.0001
    210  CD2       24.7880   42.4200   52.7930 C.3   269  LEU269      0.0001
@<TRIPOS>BOND
     1    45    46    1
     2   126   124    1
     3    93    94    1
     4    46    47    1
     5    46    49    1
     6    97    94    1
     7    97    98    1
     8    94    95    1
     9    48    47    2
    10   125   124    1
    11   149   146    1
    12   149   150    1
    13   145   146    1
    14   146   147    1
    15   124   121    1
    16    49    50    1
    17     1     2    1
    18   150   152   ar
    19   150   151   ar
    20   121   120    1
    21   121   122    1
    22   152   154   ar
    23     4     3    2
    24    95    99   am
    25    95    96    2
    26   147   148    2
    27   120   111   am
    28   116   118   ar
    29   116   114   ar
    30   113   114    1
    31   113   110    1
    32    99   100    1
    33    50    51   ar
    34    50    52   ar
    35     3     2    1
    36   111   112    2
    37   111   110    1
    38   151   153   ar
    39    51    53   ar
    40     2     5    1
    41   130   129    2
    42    26    24    1
    43   200   199    2
    44   118   119   ar
    45   154   155   ar
    46   127   122   am
    47   127   128    1
    48    43    41   ar
    49    43    44   ar
    50   114   115   ar
    51   122   123    2
    52   109   110    1
    53   109   101   am
    54    41    38   ar
    55    25    24    1
    56     5     6    1
    57    52    54   ar
    58    24    23    2
    59   153   155   ar
    60   129   128    1
    61   129   135   am
    62    44    42   ar
    63    33    32    1
    64    33    34    2
    65   100   101    1
    66   100   103    1
    67   128   131    1
    68   119   117   ar
    69   131   132    1
    70    53    55   ar
    71   115   117   ar
    72   199   198    1
    73   101   102    2
    74   103   104    1
    75   133   132    2
    76    38    36   ar
    77    38    40   ar
    78    35    32    1
    79    35    36    1
    80   137   138    2
    81   137   136    1
    82    32    31    1
    83   132   134   am
    84   201   202    1
    85   201   198    1
    86    54    55   ar
    87     6     7    1
    88   135   136    1
    89    23    22    1
    90   198   197    1
    91    36    37   ar
    92   136   139    1
    93    42    40   ar
    94    55    56    1
    95    40    39   ar
    96    30    29    2
    97   104   106   ar
    98   104   105   ar
    99   164   162   ar
   100   164   166   ar
   101     7     8    1
   102   106   108   ar
   103   156   157    1
   104    31    29   am
   105    22    21    1
   106   191   190    2
   107   162   161   ar
   108    37    39   ar
   109    29    28    1
   110   197   190   am
   111   167   166    1
   112   139   140    1
   113   141   140   ar
   114   141   143   ar
   115   105   107   ar
   116   166   165   ar
   117   140   142   ar
   118   157   158    1
   119   157   160    1
   120   143   144   ar
   121    20    21    1
   122    20    17    1
   123   190   189    1
   124   142   144   ar
   125   108   107   ar
   126    19    18    2
   127     8     9    2
   128   161   160    1
   129   161   163   ar
   130   158   159    2
   131    18    27   am
   132    18    17    1
   133    28    27    1
   134    10     9    1
   135    17    16    1
   136   165   163   ar
   137    16    14   am
   138     9    11    1
   139   187   186    1
   140    12    13    1
   141   189   192    1
   142   189   188    1
   143    89    87   ar
   144    89    91   ar
   145    87    86   ar
   146   192   193    1
   147   188   184   am
   148    84    83    2
   149    77    76    2
   150    14    13    1
   151    14    15    2
   152    92    91    1
   153    91    90   ar
   154    82    83    1
   155    82    85    1
   156    82    81    1
   157   184   185    2
   158   184   183    1
   159   210   208    1
   160   186   183    1
   161    86    85    1
   162    86    88   ar
   163   195   194    1
   164   195   196    1
   165   193   194    1
   166    76    81   am
   167    76    75    1
   168   183   182    1
   169   209   208    1
   170    79    78    1
   171    78    75    1
   172    78    80    1
   173    90    88   ar
   174   208   207    1
   175    73    72    1
   176    75    74    1
   177   207   204    1
   178   206   205    2
   179   204   205    1
   180   204   203    1
   181    71    70    1
   182    71    72    1
   183   182   177   am
   184    70    69    1
   185   178   177    2
   186    68    67    2
   187   177   176    1
   188    69    66    1
   189    67    66    1
   190    66    65    1
   191   180   179    1
   192   174   172    1
   193   176   179    1
   194   176   175    1
   195   171   170    2
   196   179   181    1
   197    60    59    2
   198   172   173    1
   199   172   169    1
   200   170   175   am
   201   170   169    1
   202    65    59   am
   203    59    58    1
   204   169   168    1
   205    58    61    1
   206    58    57    1
   207    61    62    1
   208    64    62   am
   209    62    63    2
