@<TRIPOS>MOLECULE
tmp/2r3aA01.pdb
 69 68 0 0 0
SMALL
GASTEIGER

@<TRIPOS>ATOM
      1  N         11.9390   13.1750   21.6240 N.3    67  CYS67      -0.1221
      2  CA        11.9660   14.2280   20.6240 C.3    67  CYS67       0.1808
      3  C         13.1420   14.1430   19.6850 C.2    67  CYS67       0.2602
      4  O         14.2830   13.8370   20.0940 O.2    67  CYS67      -0.2717
      5  CB        11.9600   15.6210   21.2710 C.3    67  CYS67       0.0970
      6  SG        10.9290   15.7720   22.7430 S.3    67  CYS67      -0.0800
      7  N         12.8440   14.3970   18.4140 N.am   68  THR68      -0.1939
      8  CA        13.8610   14.7450   17.4310 C.3    68  THR68       0.2028
      9  C         14.0190   16.2790   17.3710 C.2    68  THR68       0.2642
     10  O         15.0220   16.7940   16.8660 O.2    68  THR68      -0.2714
     11  CB        13.5220   14.2200   16.0360 C.3    68  THR68       0.1808
     12  OG1       12.1730   14.5740   15.7080 O.3    68  THR68      -0.2208
     13  CG2       13.7030   12.6750   15.9420 C.3    68  THR68       0.0379
     14  N         13.0170   16.9870   17.8760 N.am   69  ASP69      -0.1957
     15  CA        13.0610   18.4380   18.0400 C.3    69  ASP69       0.1840
     16  C         12.4710   18.7930   19.4120 C.2    69  ASP69       0.2622
     17  O         11.2580   18.9820   19.5480 O.2    69  ASP69      -0.2715
     18  CB        12.2690   19.1160   16.9230 C.3    69  ASP69       0.1450
     19  CG        12.5270   20.6260   16.8360 C.2    69  ASP69       0.3671
     20  OD1       13.0940   21.2230   17.7710 O.co2  69  ASP69      -0.2456
     21  OD2       12.1500   21.2190   15.8030 O.co2  69  ASP69      -0.2456
     22  N         13.3280   18.8330   20.4450 N.am   70  CYS70      -0.1954
     23  CA        12.8630   19.1200   21.8190 C.3    70  CYS70       0.1843
     24  C         12.2910   20.5230   21.9740 C.2    70  CYS70       0.2625
     25  O         11.4870   20.7760   22.8740 O.2    70  CYS70      -0.2714
     26  CB        13.9900   18.9550   22.8120 C.3    70  CYS70       0.0997
     27  SG        14.4230   17.2460   23.0560 S.3    70  CYS70      -0.0797
     28  N         12.7040   21.4330   21.0990 N.am   71  PHE71      -0.1974
     29  CA        12.1550   22.7930   21.1420 C.3    71  PHE71       0.1639
     30  C         10.6440   22.8560   20.8000 C.2    71  PHE71       0.2290
     31  O          9.8990   23.6810   21.3630 O.2    71  PHE71      -0.2864
     32  CB        12.9860   23.7440   20.2620 C.3    71  PHE71       0.0560
     33  CG        12.6880   25.1940   20.5110 C.ar   71  PHE71      -0.0200
     34  CD1       13.2360   25.8540   21.6180 C.ar   71  PHE71      -0.0042
     35  CD2       11.8110   25.8950   19.6760 C.ar   71  PHE71      -0.0042
     36  CE1       12.9220   27.2050   21.8850 C.ar   71  PHE71      -0.0003
     37  CE2       11.4990   27.2540   19.9300 C.ar   71  PHE71      -0.0003
     38  CZ        12.0530   27.9000   21.0450 C.ar   71  PHE71      -0.0000
     39  N         17.9800   13.0460   22.6970 N.3   109  CYS109     -0.1221
     40  CA        18.6290   14.2180   22.1140 C.3   109  CYS109      0.1808
     41  C         20.0900   14.3390   22.5100 C.2   109  CYS109      0.2601
     42  O         20.5020   13.8970   23.5920 O.2   109  CYS109     -0.2717
     43  CB        17.8940   15.5010   22.5100 C.3   109  CYS109      0.0970
     44  SG        17.7820   15.7090   24.3350 S.3   109  CYS109     -0.0800
     45  N         20.8580   14.9720   21.6380 N.am  110  GLY110     -0.1957
     46  CA        22.2840   15.2050   21.8670 C.3   110  GLY110      0.1869
     47  C         22.5340   16.5290   22.5860 C.2   110  GLY110      0.2309
     48  O         21.5880   17.2160   22.9940 O.2   110  GLY110     -0.2863
     49  N         23.4280   19.5450   21.7730 N.3   112  ASP112     -0.1225
     50  CA        22.9710   20.8280   21.2730 C.3   112  ASP112      0.1805
     51  C         21.4350   20.9800   21.3090 C.2   112  ASP112      0.2598
     52  O         20.8700   21.9120   20.7310 O.2   112  ASP112     -0.2718
     53  CB        23.6480   21.1430   19.9170 C.3   112  ASP112      0.1424
     54  CG        25.2200   21.0970   19.9970 C.2   112  ASP112      0.3668
     55  OD1       25.8270   21.4550   21.0560 O.co2 112  ASP112     -0.2456
     56  OD2       25.8520   20.7060   18.9810 O.co2 112  ASP112     -0.2456
     57  N         20.7700   20.0950   22.0640 N.am  113  CYS113     -0.1957
     58  CA        19.3780   20.3130   22.4510 C.3   113  CYS113      0.1828
     59  C         19.1980   21.6910   23.1560 C.2   113  CYS113      0.2467
     60  O         19.9440   22.0360   24.1050 O.2   113  CYS113     -0.2730
     61  CB        18.8920   19.1880   23.3630 C.3   113  CYS113      0.0996
     62  SG        17.2670   19.5140   24.0950 S.3   113  CYS113     -0.0797
     63  N         18.2110   22.4820   22.6960 N.am  114  PRO114     -0.2726
     64  CA        18.0120   23.8050   23.2720 C.3   114  PRO114      0.1402
     65  C         17.5390   23.6770   24.7230 C.2   114  PRO114      0.2269
     66  O         17.4260   24.6920   25.4040 O.2   114  PRO114     -0.2865
     67  CB        16.8930   24.3940   22.4010 C.3   114  PRO114      0.0296
     68  CG        16.1360   23.1780   21.9370 C.3   114  PRO114      0.0237
     69  CD        17.2130   22.1980   21.6420 C.3   114  PRO114      0.0939
@<TRIPOS>BOND
     1    12    11    1
     2    21    19   ar
     3    13    11    1
     4    11     8    1
     5    19    18    1
     6    19    20   ar
     7    10     9    2
     8    18    15    1
     9     9     8    1
    10     9    14   am
    11     8     7    1
    12    14    15    1
    13    15    16    1
    14     7     3   am
    15    56    54   ar
    16    16    17    2
    17    16    22   am
    18    35    37   ar
    19    35    33   ar
    20     3     4    2
    21     3     2    1
    22    53    54    1
    23    53    50    1
    24    37    38   ar
    25    54    55   ar
    26    32    33    1
    27    32    29    1
    28    22    23    1
    29    33    34   ar
    30     2     5    1
    31     2     1    1
    32    52    51    2
    33    30    29    1
    34    30    31    2
    35    38    36   ar
    36    28    29    1
    37    28    24   am
    38     5     6    1
    39    50    51    1
    40    50    49    1
    41    51    57   am
    42    34    36   ar
    43    45    46    1
    44    45    41   am
    45    69    68    1
    46    69    63    1
    47    23    24    1
    48    23    26    1
    49    46    47    1
    50    68    67    1
    51    24    25    2
    52    57    58    1
    53    40    43    1
    54    40    41    1
    55    40    39    1
    56    67    64    1
    57    58    59    1
    58    58    61    1
    59    43    44    1
    60    41    42    2
    61    47    48    2
    62    63    59   am
    63    63    64    1
    64    26    27    1
    65    59    60    2
    66    64    65    1
    67    61    62    1
    68    65    66    2
