@<TRIPOS>MOLECULE
tmp/2r3fA00.pdb
 158 150 0 0 0
SMALL
GASTEIGER

@<TRIPOS>ATOM
      1  N         -0.5290   24.4480   -2.8370 N.3     8  GLU8       -0.1245
      2  CA        -0.2130   23.2110   -2.1420 C.3     8  GLU8        0.1567
      3  C         -0.7340   23.1730   -0.7100 C.2     8  GLU8        0.2260
      4  O         -0.8490   24.2000   -0.0490 O.2     8  GLU8       -0.2867
      5  CB         1.2860   22.9430   -2.1650 C.3     8  GLU8        0.0388
      6  CG         2.0930   23.8660   -1.2890 C.3     8  GLU8        0.1160
      7  CD         3.5760   23.8230   -1.6200 C.2     8  GLU8        0.3649
      8  OE1        3.9150   23.6820   -2.8180 O.co2   8  GLU8       -0.2457
      9  OE2        4.4000   23.9070   -0.6800 O.co2   8  GLU8       -0.2457
     10  N         -0.3830   22.8700    2.9760 N.3    10  ILE10      -0.1245
     11  CA         0.7140   23.1060    3.8810 C.3    10  ILE10       0.1561
     12  C          0.5350   22.5200    5.2510 C.2    10  ILE10       0.2260
     13  O          1.4930   22.3390    5.9760 O.2    10  ILE10      -0.2867
     14  CB         1.1920   24.5580    3.9040 C.3    10  ILE10       0.0252
     15  CG1        0.0920   25.5120    4.4050 C.3    10  ILE10       0.0019
     16  CG2        1.7300   24.9380    2.5260 C.3    10  ILE10       0.0019
     17  CD1        0.5930   26.9690    4.6330 C.3    10  ILE10       0.0001
     18  N         -5.0450   23.7720    5.6830 N.3    18  VAL18      -0.1245
     19  CA        -4.3900   25.0460    5.4130 C.3    18  VAL18       0.1561
     20  C         -3.6490   24.9030    4.0730 C.2    18  VAL18       0.2260
     21  O         -2.9320   23.9110    3.8370 O.2    18  VAL18      -0.2867
     22  CB        -3.3570   25.4250    6.4890 C.3    18  VAL18       0.0252
     23  CG1       -2.7410   26.8040    6.1680 C.3    18  VAL18       0.0019
     24  CG2       -3.9920   25.4500    7.8810 C.3    18  VAL18       0.0019
     25  N         -1.9500   32.3690    2.7400 N.3    31  ALA31      -0.1245
     26  CA        -2.3040   31.1100    3.3920 C.3    31  ALA31       0.1562
     27  C         -3.8370   31.1280    3.4530 C.2    31  ALA31       0.2260
     28  O         -4.4400   32.1060    3.8760 O.2    31  ALA31      -0.2867
     29  CB        -1.7310   31.0480    4.8000 C.3    31  ALA31       0.0290
     30  N         -7.1610   29.2230    5.0130 N.3    33  LYS33      -0.1245
     31  CA        -7.5740   28.2520    6.0390 C.3    33  LYS33       0.1561
     32  C         -9.0620   27.9640    5.9680 C.2    33  LYS33       0.2260
     33  O         -9.8860   28.8750    6.0900 O.2    33  LYS33      -0.2867
     34  CB        -7.2280   28.7590    7.4470 C.3    33  LYS33       0.0271
     35  CG        -5.7550   29.1290    7.5840 C.3    33  LYS33       0.0035
     36  CD        -5.2140   28.9970    9.0160 C.3    33  LYS33       0.0206
     37  CE        -3.6770   29.2800    9.0100 C.3    33  LYS33       0.1093
     38  NZ        -3.0680   28.9470   10.3370 N.3    33  LYS33      -0.1314
     39  N          0.5430   37.6300   12.4000 N.3    57  VAL57      -0.1245
     40  CA         0.3060   37.2920   10.9910 C.3    57  VAL57       0.1561
     41  C         -0.9620   38.0250   10.5530 C.2    57  VAL57       0.2260
     42  O         -1.9660   37.9380   11.2190 O.2    57  VAL57      -0.2867
     43  CB         0.1180   35.7770   10.8420 C.3    57  VAL57       0.0252
     44  CG1       -0.2220   35.3860    9.3840 C.3    57  VAL57       0.0019
     45  CG2        1.3880   35.0600   11.2930 C.3    57  VAL57       0.0019
     46  N         -4.7850   34.6710    5.0530 N.3    73  PHE73      -0.1227
     47  CA        -3.7320   35.2750    5.8480 C.3    73  PHE73       0.1736
     48  C         -2.5080   35.5910    5.0150 C.2    73  PHE73       0.2595
     49  O         -2.2310   34.9690    3.9860 O.2    73  PHE73      -0.2718
     50  CB        -3.2910   34.2530    6.9330 C.3    73  PHE73       0.0547
     51  CG        -4.2610   34.1270    8.0810 C.ar   73  PHE73      -0.0202
     52  CD1       -4.2290   35.0510    9.1210 C.ar   73  PHE73      -0.0042
     53  CD2       -5.1320   33.0600    8.1590 C.ar   73  PHE73      -0.0042
     54  CE1       -5.0870   34.9340   10.2250 C.ar   73  PHE73      -0.0003
     55  CE2       -5.9790   32.9230    9.2510 C.ar   73  PHE73      -0.0003
     56  CZ        -5.9470   33.8840   10.2940 C.ar   73  PHE73      -0.0000
     57  N         -1.7150   36.5100    5.5360 N.am   74  GLU74      -0.1965
     58  CA        -0.3990   36.7780    4.9980 C.3    74  GLU74       0.1733
     59  C          0.3380   35.4190    5.0610 C.2    74  GLU74       0.2616
     60  O          0.1830   34.6820    6.0390 O.2    74  GLU74      -0.2715
     61  CB         0.2990   37.7670    5.9560 C.3    74  GLU74       0.0429
     62  CG         1.8000   37.7840    5.9360 C.3    74  GLU74       0.1163
     63  CD         2.4000   38.6570    7.0500 C.2    74  GLU74       0.3649
     64  OE1        1.6750   38.9860    8.0370 O.co2  74  GLU74      -0.2457
     65  OE2        3.5820   39.0140    6.9240 O.co2  74  GLU74      -0.2457
     66  N          1.1570   35.1050    4.0600 N.am   75  PHE75      -0.1960
     67  CA         1.8810   33.8530    4.0150 C.3    75  PHE75       0.1771
     68  C          3.2950   34.0070    4.5260 C.2    75  PHE75       0.2619
     69  O          3.9780   34.9730    4.1590 O.2    75  PHE75      -0.2715
     70  CB         1.9600   33.3690    2.5630 C.3    75  PHE75       0.0574
     71  CG         2.7290   32.0950    2.3930 C.ar   75  PHE75      -0.0200
     72  CD1        2.1280   30.8710    2.6370 C.ar   75  PHE75      -0.0042
     73  CD2        4.0930   32.1120    2.0230 C.ar   75  PHE75      -0.0042
     74  CE1        2.8520   29.6820    2.5360 C.ar   75  PHE75      -0.0003
     75  CE2        4.8130   30.9190    1.9150 C.ar   75  PHE75      -0.0003
     76  CZ         4.1990   29.7110    2.1470 C.ar   75  PHE75      -0.0000
     77  N          3.7390   33.0510    5.3530 N.am   76  LEU76      -0.1963
     78  CA         5.1380   32.9680    5.8070 C.3    76  LEU76       0.1728
     79  C          5.6190   31.5660    5.4670 C.2    76  LEU76       0.2616
     80  O          4.8500   30.6040    5.5230 O.2    76  LEU76      -0.2715
     81  CB         5.2850   33.2640    7.3150 C.3    76  LEU76       0.0311
     82  CG         5.2320   34.7720    7.6320 C.3    76  LEU76       0.0022
     83  CD1        3.8030   35.1520    8.0240 C.3    76  LEU76       0.0001
     84  CD2        6.1840   35.1640    8.7250 C.3    76  LEU76       0.0001
     85  N          6.8930   31.4690    5.0910 N.am   77  HIS77      -0.1959
     86  CA         7.4510   30.2170    4.5990 C.3    77  HIS77       0.1787
     87  C          7.7670   29.1190    5.5930 C.2    77  HIS77       0.2620
     88  O          7.8730   27.9580    5.2080 O.2    77  HIS77      -0.2715
     89  CB         8.6670   30.4740    3.6910 C.3    77  HIS77       0.0785
     90  CG         8.3320   31.1460    2.3910 C.ar   77  HIS77       0.0821
     91  ND1        8.1750   32.5150    2.2810 N.ar   77  HIS77      -0.2267
     92  CD2        8.2260   30.6530    1.1280 C.ar   77  HIS77       0.1154
     93  CE1        7.9190   32.8270    1.0180 C.ar   77  HIS77       0.1986
     94  NE2        7.9970   31.7260    0.2930 N.ar   77  HIS77      -0.2212
     95  N          7.9280   29.4430    6.8680 N.am   78  GLN78      -0.1963
     96  CA         8.3210   28.3960    7.8020 C.3    78  GLN78       0.1733
     97  C          7.7940   28.6800    9.1850 C.2    78  GLN78       0.2616
     98  O          7.4960   29.8150    9.5170 O.2    78  GLN78      -0.2715
     99  CB         9.8560   28.3250    7.8610 C.3    78  GLN78       0.0408
    100  CG        10.3920   27.2160    8.7930 C.3    78  GLN78       0.0908
    101  CD        11.6560   26.5700    8.2830 C.2    78  GLN78       0.2608
    102  OE1       11.6520   25.8880    7.2520 O.2    78  GLN78      -0.2717
    103  NE2       12.7500   26.7630    9.0100 N.am   78  GLN78      -0.0878
    104  N          7.7460   27.6310    9.9990 N.am   79  ASP79      -0.1971
    105  CA         7.3350   27.7380   11.3670 C.3    79  ASP79       0.1709
    106  C          8.4840   27.4090   12.3170 C.2    79  ASP79       0.2293
    107  O          9.5450   26.9150   11.8980 O.2    79  ASP79      -0.2864
    108  CB         6.0800   26.9090   11.6410 C.3    79  ASP79       0.1436
    109  CG         6.3240   25.4200   11.5720 C.2    79  ASP79       0.3671
    110  OD1        7.2350   24.9270   12.2700 O.co2  79  ASP79      -0.2456
    111  OD2        5.5580   24.7460   10.8440 O.co2  79  ASP79      -0.2456
    112  N          9.5210   23.5220   12.7810 N.3    82  LYS82      -0.1245
    113  CA        10.4290   23.0260   11.7660 C.3    82  LYS82       0.1561
    114  C         11.8220   23.6600   11.9070 C.2    82  LYS82       0.2260
    115  O         12.8360   22.9750   11.7920 O.2    82  LYS82      -0.2867
    116  CB         9.8300   23.2550   10.3740 C.3    82  LYS82       0.0271
    117  CG         8.6490   22.3390   10.0640 C.3    82  LYS82       0.0035
    118  CD         8.1920   22.4790    8.6140 C.3    82  LYS82       0.0206
    119  CE         6.8380   21.8110    8.3910 C.3    82  LYS82       0.1093
    120  NZ         5.7120   22.6570    8.8830 N.3    82  LYS82      -0.1314
    121  N          4.2680   25.4460   16.2440 N.3   124  GLN124     -0.1231
    122  CA         3.6160   25.3060   14.9250 C.3   124  GLN124      0.1698
    123  C          2.9450   26.5830   14.4420 C.2   124  GLN124      0.2592
    124  O          2.7640   26.7650   13.2160 O.2   124  GLN124     -0.2718
    125  CB         2.6030   24.1490   14.9570 C.3   124  GLN124      0.0381
    126  CG         2.0660   23.7480   13.5950 C.3   124  GLN124      0.0905
    127  CD         1.1230   22.5520   13.6800 C.2   124  GLN124      0.2608
    128  OE1        0.8200   21.9090   12.6710 O.2   124  GLN124     -0.2717
    129  NE2        0.6990   22.2280   14.8950 N.am  124  GLN124     -0.0878
    130  N          2.5420   27.4500   15.3750 N.am  125  ASN125     -0.1974
    131  CA         1.8950   28.7070   14.9640 C.3   125  ASN125      0.1688
    132  C          2.7170   29.9270   15.2150 C.2   125  ASN125      0.2292
    133  O          2.2140   31.0200   15.1990 O.2   125  ASN125     -0.2864
    134  CB         0.4660   28.8510   15.4300 C.3   125  ASN125      0.1181
    135  CG         0.3060   28.6940   16.9120 C.2   125  ASN125      0.2629
    136  OD1        1.1450   29.1570   17.6910 O.2   125  ASN125     -0.2716
    137  ND2       -0.8930   28.2060   17.3320 N.am  125  ASN125     -0.0877
    138  N          5.4990   31.7610   13.2150 N.3   127  LEU127     -0.1245
    139  CA         5.9900   31.7090   11.8640 C.3   127  LEU127      0.1561
    140  C          7.1610   32.6550   11.6130 C.2   127  LEU127      0.2260
    141  O          7.2080   33.7550   12.1490 O.2   127  LEU127     -0.2867
    142  CB         4.8400   31.9810   10.8900 C.3   127  LEU127      0.0270
    143  CG         3.5510   31.1770   11.1310 C.3   127  LEU127      0.0019
    144  CD1        2.5670   31.5250   10.0660 C.3   127  LEU127      0.0001
    145  CD2        3.8570   29.7140   11.0850 C.3   127  LEU127      0.0001
    146  N          0.6390   33.3130   14.5760 N.3   137  ALA137     -0.1231
    147  CA        -0.4740   32.9470   13.6960 C.3   137  ALA137      0.1694
    148  C         -1.6510   32.5050   14.5380 C.2   137  ALA137      0.2592
    149  O         -1.4610   31.9530   15.6210 O.2   137  ALA137     -0.2718
    150  CB        -0.0930   31.8130   12.7610 C.3   137  ALA137      0.0304
    151  N         -2.8560   32.6640   13.9770 N.am  138  ASP138     -0.1974
    152  CA        -4.1030   32.1840   14.6050 C.3   138  ASP138      0.1709
    153  C         -4.5190   32.8820   15.8890 C.2   138  ASP138      0.2293
    154  O         -5.3460   32.3670   16.6770 O.2   138  ASP138     -0.2864
    155  CB        -4.0350   30.6650   14.8170 C.3   138  ASP138      0.1436
    156  CG        -3.9810   29.8730   13.4850 C.2   138  ASP138      0.3671
    157  OD1       -4.0550   30.4780   12.3780 O.co2 138  ASP138     -0.2456
    158  OD2       -3.9550   28.6210   13.5620 O.co2 138  ASP138     -0.2456
@<TRIPOS>BOND
     1     1     2    1
     2     8     7   ar
     3     5     2    1
     4     5     6    1
     5     2     3    1
     6     7     6    1
     7     7     9   ar
     8     3     4    2
     9    94    93   ar
    10    94    92   ar
    11    93    91   ar
    12    92    90   ar
    13    75    73   ar
    14    75    76   ar
    15    73    71   ar
    16    76    74   ar
    17    91    90   ar
    18    90    89    1
    19    71    70    1
    20    71    72   ar
    21    16    14    1
    22    74    72   ar
    23    70    67    1
    24    25    26    1
    25    10    11    1
    26    26    27    1
    27    26    29    1
    28    27    28    2
    29    89    86    1
    30    21    20    2
    31    11    14    1
    32    11    12    1
    33    14    15    1
    34    49    48    2
    35    67    66    1
    36    67    68    1
    37    66    59   am
    38    20    19    1
    39    69    68    2
    40    15    17    1
    41    68    77   am
    42    86    85    1
    43    86    87    1
    44    58    59    1
    45    58    57    1
    46    58    61    1
    47    30    31    1
    48    48    57   am
    49    48    47    1
    50    46    47    1
    51    59    60    2
    52    85    79   am
    53    88    87    2
    54    12    13    2
    55    77    78    1
    56    19    18    1
    57    19    22    1
    58    79    80    2
    59    79    78    1
    60    87    95   am
    61    78    81    1
    62    47    50    1
    63    62    61    1
    64    62    63    1
    65    32    31    1
    66    32    33    2
    67    31    34    1
    68    23    22    1
    69    22    24    1
    70    95    96    1
    71    65    63   ar
    72    50    51    1
    73    63    64   ar
    74   102   101    2
    75    81    82    1
    76    34    35    1
    77    35    36    1
    78    82    83    1
    79    82    84    1
    80    96    99    1
    81    96    97    1
    82    99   100    1
    83    51    53   ar
    84    51    52   ar
    85    53    55   ar
    86   101   100    1
    87   101   103   am
    88   119   118    1
    89   119   120    1
    90   118   117    1
    91    37    36    1
    92    37    38    1
    93    52    54   ar
    94    97    98    2
    95    97   104   am
    96    55    56   ar
    97    44    43    1
    98   104   105    1
    99   117   116    1
   100   144   143    1
   101    54    56   ar
   102   116   113    1
   103    41    40    1
   104    41    42    2
   105    43    40    1
   106    43    45    1
   107   111   109   ar
   108   142   143    1
   109   142   139    1
   110    40    39    1
   111   145   143    1
   112   105   108    1
   113   105   106    1
   114   109   108    1
   115   109   110   ar
   116   140   139    1
   117   140   141    2
   118   113   114    1
   119   113   112    1
   120   115   114    2
   121   139   138    1
   122   107   106    2
   123   157   156   ar
   124   128   127    2
   125   150   147    1
   126   124   123    2
   127   156   158   ar
   128   156   155    1
   129   126   127    1
   130   126   125    1
   131   127   129   am
   132   147   148    1
   133   147   146    1
   134   151   148   am
   135   151   152    1
   136   123   122    1
   137   123   130   am
   138   148   149    2
   139   152   155    1
   140   152   153    1
   141   122   125    1
   142   122   121    1
   143   131   132    1
   144   131   130    1
   145   131   134    1
   146   133   132    2
   147   134   135    1
   148   153   154    2
   149   135   137   am
   150   135   136    2
