@<TRIPOS>MOLECULE
tmp/2r3gA00.pdb
 158 151 0 0 0
SMALL
GASTEIGER

@<TRIPOS>ATOM
      1  N         -0.3280   22.7270    3.0690 N.3    10  ILE10      -0.1231
      2  CA         0.6810   23.0320    4.0710 C.3    10  ILE10       0.1692
      3  C          0.5540   22.0590    5.2130 C.2    10  ILE10       0.2593
      4  O          1.5450   21.5440    5.7220 O.2    10  ILE10      -0.2718
      5  CB         0.5230   24.4520    4.6190 C.3    10  ILE10       0.0266
      6  CG1        1.0230   25.4680    3.5970 C.3    10  ILE10       0.0019
      7  CG2        1.2700   24.5830    5.9430 C.3    10  ILE10       0.0020
      8  CD1        0.4590   26.8830    3.7940 C.3    10  ILE10       0.0001
      9  N         -0.6760   21.7680    5.6010 N.am   11  GLY11      -0.1942
     10  CA        -0.8870   20.8280    6.6680 C.3    11  GLY11       0.2014
     11  C         -2.2990   20.8570    7.1660 C.2    11  GLY11       0.2639
     12  O         -3.1620   21.5310    6.6050 O.2    11  GLY11      -0.2714
     13  N         -2.5490   20.0830    8.2050 N.am   12  GLU12      -0.1963
     14  CA        -3.8570   20.0380    8.8030 C.3    12  GLU12       0.1733
     15  C         -3.7940   20.7860   10.0970 C.2    12  GLU12       0.2616
     16  O         -2.9950   20.4640   10.9780 O.2    12  GLU12      -0.2715
     17  CB        -4.3200   18.5870    9.0140 C.3    12  GLU12       0.0429
     18  CG        -3.6220   17.8730   10.1290 C.3    12  GLU12       0.1163
     19  CD        -3.6510   16.3650    9.9610 C.2    12  GLU12       0.3649
     20  OE1       -3.7600   15.8950    8.8050 O.co2  12  GLU12      -0.2457
     21  OE2       -3.5500   15.6510   10.9870 O.co2  12  GLU12      -0.2457
     22  N         -4.5520   21.8650   10.1740 N.am   13  GLY13      -0.1955
     23  CA        -4.5680   22.6800   11.3670 C.3    13  GLY13       0.1869
     24  C         -5.6170   22.1570   12.3470 C.2    13  GLY13       0.2309
     25  O         -6.2040   21.1050   12.1370 O.2    13  GLY13      -0.2863
     26  N         -4.9240   23.5830    5.7440 N.3    18  VAL18      -0.1245
     27  CA        -4.3260   24.8810    5.3960 C.3    18  VAL18       0.1561
     28  C         -3.6000   24.6800    4.0880 C.2    18  VAL18       0.2260
     29  O         -2.8780   23.7000    3.9170 O.2    18  VAL18      -0.2867
     30  CB        -3.3320   25.3520    6.4400 C.3    18  VAL18       0.0252
     31  CG1       -2.6670   26.6740    5.9860 C.3    18  VAL18       0.0019
     32  CG2       -4.0390   25.5190    7.8040 C.3    18  VAL18       0.0019
     33  N         -2.0150   32.0240    2.6200 N.3    31  ALA31      -0.1245
     34  CA        -2.3440   30.7680    3.2690 C.3    31  ALA31       0.1562
     35  C         -3.8540   30.7810    3.4190 C.2    31  ALA31       0.2260
     36  O         -4.4300   31.7590    3.8620 O.2    31  ALA31      -0.2867
     37  CB        -1.6770   30.6740    4.6180 C.3    31  ALA31       0.0290
     38  N         -7.0470   28.9300    5.0760 N.3    33  LYS33      -0.1245
     39  CA        -7.4580   27.9720    6.1020 C.3    33  LYS33       0.1561
     40  C         -8.9280   27.6350    5.9360 C.2    33  LYS33       0.2260
     41  O         -9.7940   28.4970    6.0340 O.2    33  LYS33      -0.2867
     42  CB        -7.1520   28.4950    7.5190 C.3    33  LYS33       0.0271
     43  CG        -5.6390   28.7070    7.7810 C.3    33  LYS33       0.0035
     44  CD        -5.2710   28.5700    9.2720 C.3    33  LYS33       0.0206
     45  CE        -3.7530   28.3580    9.4150 C.3    33  LYS33       0.1093
     46  NZ        -3.2800   28.3790   10.8370 N.3    33  LYS33      -0.1314
     47  N          0.4090   37.3060   12.3340 N.3    55  VAL55      -0.1245
     48  CA         0.1640   36.9310   10.9440 C.3    55  VAL55       0.1561
     49  C         -1.1190   37.6380   10.5100 C.2    55  VAL55       0.2260
     50  O         -2.1540   37.5040   11.1520 O.2    55  VAL55      -0.2867
     51  CB        -0.0080   35.4230   10.8280 C.3    55  VAL55       0.0252
     52  CG1       -0.3610   35.0280    9.4020 C.3    55  VAL55       0.0019
     53  CG2        1.2580   34.7350   11.2180 C.3    55  VAL55       0.0019
     54  N         -4.9220   34.2470    5.0220 N.3    71  PHE71      -0.1227
     55  CA        -3.8460   34.8290    5.8040 C.3    71  PHE71       0.1736
     56  C         -2.6410   35.1920    4.9680 C.2    71  PHE71       0.2595
     57  O         -2.3610   34.5820    3.9470 O.2    71  PHE71      -0.2718
     58  CB        -3.3670   33.8080    6.8710 C.3    71  PHE71       0.0547
     59  CG        -4.3130   33.6490    8.0250 C.ar   71  PHE71      -0.0202
     60  CD1       -4.3790   34.6130    9.0210 C.ar   71  PHE71      -0.0042
     61  CD2       -5.0970   32.5230    8.1390 C.ar   71  PHE71      -0.0042
     62  CE1       -5.2190   34.4550   10.1180 C.ar   71  PHE71      -0.0003
     63  CE2       -5.9480   32.3610    9.2300 C.ar   71  PHE71      -0.0003
     64  CZ        -6.0250   33.3410   10.2010 C.ar   71  PHE71      -0.0000
     65  N         -1.8460   36.0880    5.5270 N.am   72  GLU72      -0.1965
     66  CA        -0.5210   36.3960    5.0220 C.3    72  GLU72       0.1733
     67  C          0.2610   35.0410    5.0110 C.2    72  GLU72       0.2616
     68  O          0.1140   34.2260    5.9410 O.2    72  GLU72      -0.2715
     69  CB         0.1520   37.3220    6.0510 C.3    72  GLU72       0.0429
     70  CG         1.6090   37.4230    5.9350 C.3    72  GLU72       0.1163
     71  CD         2.2440   38.2820    7.0320 C.2    72  GLU72       0.3649
     72  OE1        1.5720   38.5930    8.0490 O.co2  72  GLU72      -0.2457
     73  OE2        3.4390   38.5700    6.8840 O.co2  72  GLU72      -0.2457
     74  N          1.0840   34.8090    4.0010 N.am   73  PHE73      -0.1960
     75  CA         1.8590   33.5770    3.9370 C.3    73  PHE73       0.1771
     76  C          3.2890   33.7780    4.4270 C.2    73  PHE73       0.2619
     77  O          3.9500   34.7610    4.0520 O.2    73  PHE73      -0.2715
     78  CB         1.8960   33.0710    2.4860 C.3    73  PHE73       0.0574
     79  CG         2.7140   31.8430    2.3040 C.ar   73  PHE73      -0.0200
     80  CD1        2.1690   30.5740    2.5670 C.ar   73  PHE73      -0.0042
     81  CD2        4.0540   31.9310    1.9340 C.ar   73  PHE73      -0.0042
     82  CE1        2.9550   29.4470    2.4680 C.ar   73  PHE73      -0.0003
     83  CE2        4.8160   30.7980    1.8070 C.ar   73  PHE73      -0.0003
     84  CZ         4.2720   29.5670    2.0530 C.ar   73  PHE73      -0.0000
     85  N          3.7650   32.8510    5.2730 N.am   74  LEU74      -0.1963
     86  CA         5.1600   32.8140    5.6660 C.3    74  LEU74       0.1728
     87  C          5.6530   31.4040    5.3510 C.2    74  LEU74       0.2616
     88  O          4.8690   30.4630    5.3480 O.2    74  LEU74      -0.2715
     89  CB         5.3520   33.1430    7.1540 C.3    74  LEU74       0.0311
     90  CG         5.2490   34.6230    7.4570 C.3    74  LEU74       0.0022
     91  CD1        3.8070   34.9510    7.7290 C.3    74  LEU74       0.0001
     92  CD2        6.1610   35.0240    8.6480 C.3    74  LEU74       0.0001
     93  N          6.9430   31.2800    5.0670 N.am   75  HIS75      -0.1959
     94  CA         7.5200   30.0340    4.5610 C.3    75  HIS75       0.1787
     95  C          7.8440   28.9130    5.4970 C.2    75  HIS75       0.2620
     96  O          8.0570   27.7880    5.0420 O.2    75  HIS75      -0.2715
     97  CB         8.7350   30.2990    3.6480 C.3    75  HIS75       0.0785
     98  CG         8.3930   30.9750    2.3520 C.ar   75  HIS75       0.0821
     99  ND1        8.1590   32.3320    2.2490 N.ar   75  HIS75      -0.2267
    100  CD2        8.2840   30.4780    1.0950 C.ar   75  HIS75       0.1154
    101  CE1        7.8910   32.6370    0.9850 C.ar   75  HIS75       0.1986
    102  NE2        7.9810   31.5310    0.2640 N.ar   75  HIS75      -0.2212
    103  N          7.9320   29.1760    6.7940 N.am   76  GLN76      -0.1963
    104  CA         8.2540   28.0780    7.6840 C.3    76  GLN76       0.1733
    105  C          7.7120   28.3750    9.0620 C.2    76  GLN76       0.2616
    106  O          7.5260   29.5290    9.4240 O.2    76  GLN76      -0.2715
    107  CB         9.7600   27.9410    7.7920 C.3    76  GLN76       0.0408
    108  CG        10.1870   26.6340    8.4700 C.3    76  GLN76       0.0908
    109  CD        11.5470   26.1840    8.0370 C.2    76  GLN76       0.2608
    110  OE1       11.7150   25.6590    6.9280 O.2    76  GLN76      -0.2717
    111  NE2       12.5450   26.4460    8.8620 N.am   76  GLN76      -0.0878
    112  N          7.4880   27.3130    9.8220 N.am   77  ASP77      -0.1971
    113  CA         7.0560   27.4460   11.2050 C.3    77  ASP77       0.1709
    114  C          8.1810   27.1140   12.1720 C.2    77  ASP77       0.2293
    115  O          9.2240   26.6050   11.7710 O.2    77  ASP77      -0.2864
    116  CB         5.7850   26.6480   11.4850 C.3    77  ASP77       0.1436
    117  CG         6.0000   25.1460   11.4400 C.2    77  ASP77       0.3671
    118  OD1        6.8400   24.6430   12.2010 O.co2  77  ASP77      -0.2456
    119  OD2        5.2840   24.4590   10.6820 O.co2  77  ASP77      -0.2456
    120  N          9.2160   23.3250   12.6220 N.3    80  LYS80      -0.1245
    121  CA        10.1270   22.8520   11.5860 C.3    80  LYS80       0.1561
    122  C         11.5320   23.4360   11.7290 C.2    80  LYS80       0.2260
    123  O         12.5250   22.7180   11.5820 O.2    80  LYS80      -0.2867
    124  CB         9.5450   23.1070   10.1780 C.3    80  LYS80       0.0271
    125  CG         8.8970   21.8760    9.5660 C.3    80  LYS80       0.0035
    126  CD         8.0540   22.2180    8.3400 C.3    80  LYS80       0.0206
    127  CE         6.5590   22.0610    8.6330 C.3    80  LYS80       0.1093
    128  NZ         5.7040   22.5800    7.5220 N.3    80  LYS80      -0.1314
    129  N          4.0700   25.2400   16.2290 N.3   122  GLN122     -0.1245
    130  CA         3.3810   25.1460   14.9350 C.3   122  GLN122      0.1566
    131  C          2.6250   26.4130   14.5600 C.2   122  GLN122      0.2260
    132  O          2.3520   26.6310   13.3730 O.2   122  GLN122     -0.2867
    133  CB         2.4470   23.9380   14.8920 C.3   122  GLN122      0.0367
    134  CG         3.1670   22.6110   14.9440 C.3   122  GLN122      0.0905
    135  CD         2.2100   21.4340   14.8820 C.2   122  GLN122      0.2608
    136  OE1        2.6070   20.2830   15.0840 O.2   122  GLN122     -0.2717
    137  NE2        0.9410   21.7160   14.5950 N.am  122  GLN122     -0.0878
    138  N          5.3180   31.5290   13.0520 N.3   125  LEU125     -0.1245
    139  CA         5.8470   31.4820   11.6870 C.3   125  LEU125      0.1561
    140  C          7.0270   32.4230   11.5070 C.2   125  LEU125      0.2260
    141  O          7.0540   33.5110   12.0800 O.2   125  LEU125     -0.2867
    142  CB         4.7280   31.7980   10.6640 C.3   125  LEU125      0.0270
    143  CG         3.4410   30.9690   10.7810 C.3   125  LEU125      0.0019
    144  CD1        2.5420   31.3050    9.5890 C.3   125  LEU125      0.0001
    145  CD2        3.7390   29.4440   10.8020 C.3   125  LEU125      0.0001
    146  N          0.4900   33.0650   14.6070 N.3   135  ALA135     -0.1231
    147  CA        -0.6240   32.6460   13.7460 C.3   135  ALA135      0.1694
    148  C         -1.7900   32.1510   14.5990 C.2   135  ALA135      0.2592
    149  O         -1.6040   31.7090   15.7460 O.2   135  ALA135     -0.2718
    150  CB        -0.1980   31.5390   12.8090 C.3   135  ALA135      0.0304
    151  N         -2.9840   32.2250   14.0230 N.am  136  ASP136     -0.1974
    152  CA        -4.2330   31.7930   14.6880 C.3   136  ASP136      0.1709
    153  C         -4.6350   32.5640   15.9180 C.2   136  ASP136      0.2293
    154  O         -5.4200   32.0800   16.7390 O.2   136  ASP136     -0.2864
    155  CB        -4.2000   30.3050   14.9540 C.3   136  ASP136      0.1436
    156  CG        -4.1860   29.4930   13.6690 C.2   136  ASP136      0.3671
    157  OD1       -4.2830   30.1090   12.5750 O.co2 136  ASP136     -0.2456
    158  OD2       -4.1620   28.2480   13.7480 O.co2 136  ASP136     -0.2456
@<TRIPOS>BOND
     1   102   101   ar
     2   102   100   ar
     3   101    99   ar
     4   100    98   ar
     5    83    81   ar
     6    83    84   ar
     7    81    79   ar
     8    84    82   ar
     9    99    98   ar
    10    79    78    1
    11    79    80   ar
    12    98    97    1
    13    82    80   ar
    14    78    75    1
    15    33    34    1
    16     1     2    1
    17    34    35    1
    18    34    37    1
    19    35    36    2
    20     6     8    1
    21     6     5    1
    22    97    94    1
    23    29    28    2
    24    75    74    1
    25    75    76    1
    26    57    56    2
    27    74    67   am
    28    77    76    2
    29     2     5    1
    30     2     3    1
    31    28    27    1
    32    76    85   am
    33    94    93    1
    34    94    95    1
    35     5     7    1
    36    56    65   am
    37    56    55    1
    38    67    66    1
    39    67    68    2
    40    54    55    1
    41    66    65    1
    42    66    69    1
    43    96    95    2
    44    93    87   am
    45    38    39    1
    46     3     9   am
    47     3     4    2
    48    85    86    1
    49    88    87    2
    50    87    86    1
    51    27    26    1
    52    27    30    1
    53    95   103   am
    54     9    10    1
    55    86    89    1
    56    55    58    1
    57    70    69    1
    58    70    71    1
    59    40    41    2
    60    40    39    1
    61    31    30    1
    62    39    42    1
    63    30    32    1
    64    12    11    2
    65    10    11    1
    66   103   104    1
    67    58    59    1
    68    73    71   ar
    69   110   109    2
    70    71    72   ar
    71    89    90    1
    72    11    13   am
    73    90    91    1
    74    90    92    1
    75    42    43    1
    76   128   127    1
    77   104   107    1
    78   104   105    1
    79    43    44    1
    80   107   108    1
    81    59    61   ar
    82    59    60   ar
    83   109   108    1
    84   109   111   am
    85    61    63   ar
    86    13    14    1
    87   126   127    1
    88   126   125    1
    89    14    17    1
    90    14    15    1
    91    20    19   ar
    92    17    18    1
    93    60    62   ar
    94   105   106    2
    95   105   112   am
    96    63    64   ar
    97    44    45    1
    98    52    51    1
    99    45    46    1
   100   125   124    1
   101   144   143    1
   102   112   113    1
   103    19    18    1
   104    19    21   ar
   105    15    22   am
   106    15    16    2
   107    62    64   ar
   108    22    23    1
   109   124   121    1
   110    49    48    1
   111    49    50    2
   112   142   143    1
   113   142   139    1
   114   119   117   ar
   115   143   145    1
   116    51    48    1
   117    51    53    1
   118    48    47    1
   119   113   116    1
   120   113   114    1
   121    23    24    1
   122   117   116    1
   123   117   118   ar
   124   140   139    1
   125   140   141    2
   126   123   122    2
   127   121   122    1
   128   121   120    1
   129   139   138    1
   130   115   114    2
   131    25    24    2
   132   157   156   ar
   133   150   147    1
   134   132   131    2
   135   156   158   ar
   136   156   155    1
   137   147   148    1
   138   147   146    1
   139   151   148   am
   140   151   152    1
   141   131   130    1
   142   137   135   am
   143   148   149    2
   144   152   155    1
   145   152   153    1
   146   135   134    1
   147   135   136    2
   148   133   130    1
   149   133   134    1
   150   130   129    1
   151   153   154    2
