@<TRIPOS>MOLECULE
tmp/2r3hA00.pdb
 163 154 0 0 0
SMALL
GASTEIGER

@<TRIPOS>ATOM
      1  N         -0.6580   23.9210   -2.6100 N.3     8  GLU8       -0.1245
      2  CA        -0.2750   22.7570   -1.8280 C.3     8  GLU8        0.1567
      3  C         -0.7930   22.8730   -0.3970 C.2     8  GLU8        0.2260
      4  O         -1.0750   23.9710    0.0830 O.2     8  GLU8       -0.2867
      5  CB         1.2500   22.5650   -1.8410 C.3     8  GLU8        0.0388
      6  CG         1.8950   22.5760   -0.4640 C.3     8  GLU8        0.1160
      7  CD         3.3540   23.0230   -0.4960 C.2     8  GLU8        0.3649
      8  OE1        3.7690   23.6400   -1.5000 O.co2   8  GLU8       -0.2457
      9  OE2        4.0830   22.7590    0.4870 O.co2   8  GLU8       -0.2457
     10  N         -0.2750   22.9080    3.4340 N.3    10  ILE10      -0.1231
     11  CA         0.8320   23.2060    4.3320 C.3    10  ILE10       0.1692
     12  C          0.5470   22.8500    5.7780 C.2    10  ILE10       0.2592
     13  O          1.1300   23.4290    6.7010 O.2    10  ILE10      -0.2718
     14  CB         1.3220   24.6640    4.2100 C.3    10  ILE10       0.0266
     15  CG1        0.2120   25.6520    4.5680 C.3    10  ILE10       0.0019
     16  CG2        1.8610   24.9270    2.8160 C.3    10  ILE10       0.0020
     17  CD1        0.6470   27.1070    4.4660 C.3    10  ILE10       0.0001
     18  N         -0.3250   21.8670    5.9720 N.am   11  GLY11      -0.1957
     19  CA        -0.6490   21.3950    7.3090 C.3    11  GLY11       0.1869
     20  C         -2.1430   21.3650    7.5790 C.2    11  GLY11       0.2309
     21  O         -2.9350   21.9370    6.8370 O.2    11  GLY11      -0.2863
     22  N         -4.9290   23.6940    6.0810 N.3    18  VAL18      -0.1245
     23  CA        -4.3690   24.9590    5.5850 C.3    18  VAL18       0.1561
     24  C         -3.6530   24.7070    4.2700 C.2    18  VAL18       0.2260
     25  O         -2.9170   23.7260    4.1210 O.2    18  VAL18      -0.2867
     26  CB        -3.3930   25.5800    6.5770 C.3    18  VAL18       0.0252
     27  CG1       -2.8870   26.9370    6.0490 C.3    18  VAL18       0.0019
     28  CG2       -4.0560   25.7530    7.9320 C.3    18  VAL18       0.0019
     29  N         -1.4310   26.4700    0.8840 N.3    20  LYS20      -0.1245
     30  CA        -0.7510   27.5870    0.2680 C.3    20  LYS20       0.1561
     31  C         -1.5820   27.8090   -0.9890 C.2    20  LYS20       0.2260
     32  O         -1.9060   26.8500   -1.7050 O.2    20  LYS20      -0.2867
     33  CB         0.6660   27.1880   -0.1580 C.3    20  LYS20       0.0271
     34  CG         1.4360   28.3410   -0.8440 C.3    20  LYS20       0.0035
     35  CD         2.8920   27.9410   -1.0990 C.3    20  LYS20       0.0206
     36  CE         3.7720   29.1190   -1.5410 C.3    20  LYS20       0.1093
     37  NZ         5.1640   28.5810   -1.8220 N.3    20  LYS20      -0.1314
     38  N         -2.0410   31.9640    2.6960 N.3    31  ALA31      -0.1245
     39  CA        -2.3930   30.7330    3.3850 C.3    31  ALA31       0.1562
     40  C         -3.9050   30.7560    3.5210 C.2    31  ALA31       0.2260
     41  O         -4.4790   31.7020    4.0520 O.2    31  ALA31      -0.2867
     42  CB        -1.7300   30.6660    4.7640 C.3    31  ALA31       0.0290
     43  N         -7.1120   28.9170    5.1280 N.3    33  LYS33      -0.1245
     44  CA        -7.5190   27.9720    6.1680 C.3    33  LYS33       0.1561
     45  C         -8.9920   27.6220    6.0140 C.2    33  LYS33       0.2260
     46  O         -9.8440   28.4880    6.0970 O.2    33  LYS33      -0.2867
     47  CB        -7.2630   28.5440    7.5630 C.3    33  LYS33       0.0271
     48  CG        -7.7670   27.6340    8.6880 C.3    33  LYS33       0.0035
     49  CD        -7.5240   28.2410   10.0630 C.3    33  LYS33       0.0206
     50  CE        -6.6060   27.3530   10.9210 C.3    33  LYS33       0.1093
     51  NZ        -7.2240   26.0290   11.2660 N.3    33  LYS33      -0.1314
     52  N          0.3550   37.2150   12.4980 N.3    57  VAL57      -0.1245
     53  CA         0.1270   36.8470   11.1070 C.3    57  VAL57       0.1561
     54  C         -1.1490   37.5550   10.6460 C.2    57  VAL57       0.2260
     55  O         -2.2020   37.4390   11.3040 O.2    57  VAL57      -0.2867
     56  CB        -0.0270   35.3210   10.9740 C.3    57  VAL57       0.0252
     57  CG1       -0.4020   34.9410    9.5510 C.3    57  VAL57       0.0019
     58  CG2        1.2620   34.6500   11.3430 C.3    57  VAL57       0.0019
     59  N         -4.9700   34.1690    5.1100 N.3    73  PHE73      -0.1227
     60  CA        -3.8830   34.7780    5.8880 C.3    73  PHE73       0.1736
     61  C         -2.6860   35.1170    5.0360 C.2    73  PHE73       0.2595
     62  O         -2.4330   34.4960    4.0260 O.2    73  PHE73      -0.2718
     63  CB        -3.4110   33.7770    6.9570 C.3    73  PHE73       0.0547
     64  CG        -4.3510   33.6240    8.1000 C.ar   73  PHE73      -0.0202
     65  CD1       -4.3840   34.5790    9.1210 C.ar   73  PHE73      -0.0042
     66  CD2       -5.1230   32.4730    8.2240 C.ar   73  PHE73      -0.0042
     67  CE1       -5.1890   34.4130   10.2100 C.ar   73  PHE73      -0.0003
     68  CE2       -5.9600   32.3100    9.3190 C.ar   73  PHE73      -0.0003
     69  CZ        -6.0270   33.2990   10.2900 C.ar   73  PHE73      -0.0000
     70  N         -1.8530   35.9840    5.5770 N.am   74  GLU74      -0.1965
     71  CA        -0.5420   36.2580    5.0190 C.3    74  GLU74       0.1733
     72  C          0.2480   34.9360    5.0850 C.2    74  GLU74       0.2616
     73  O          0.0790   34.1420    6.0430 O.2    74  GLU74      -0.2715
     74  CB         0.1260   37.3220    5.9090 C.3    74  GLU74       0.0429
     75  CG         1.5500   37.0920    6.2100 C.3    74  GLU74       0.1163
     76  CD         2.1520   38.1430    7.1860 C.2    74  GLU74       0.3649
     77  OE1        1.5050   38.5080    8.1970 O.co2  74  GLU74      -0.2457
     78  OE2        3.2850   38.5760    6.9260 O.co2  74  GLU74      -0.2457
     79  N          1.0700   34.6650    4.0760 N.am   75  PHE75      -0.1960
     80  CA         1.8410   33.4400    4.0310 C.3    75  PHE75       0.1771
     81  C          3.2540   33.6520    4.5400 C.2    75  PHE75       0.2619
     82  O          3.9420   34.6030    4.1170 O.2    75  PHE75      -0.2715
     83  CB         1.9150   32.9470    2.5780 C.3    75  PHE75       0.0574
     84  CG         2.7490   31.7420    2.3970 C.ar   75  PHE75      -0.0200
     85  CD1        2.2210   30.4640    2.6360 C.ar   75  PHE75      -0.0042
     86  CD2        4.0840   31.8530    1.9520 C.ar   75  PHE75      -0.0042
     87  CE1        3.0260   29.3340    2.5070 C.ar   75  PHE75      -0.0003
     88  CE2        4.8740   30.7180    1.7990 C.ar   75  PHE75      -0.0003
     89  CZ         4.3430   29.4560    2.0550 C.ar   75  PHE75      -0.0000
     90  N          3.7180   32.7380    5.4010 N.am   76  LEU76      -0.1963
     91  CA         5.1190   32.7270    5.8230 C.3    76  LEU76       0.1728
     92  C          5.6760   31.3570    5.4720 C.2    76  LEU76       0.2616
     93  O          4.9500   30.3590    5.5050 O.2    76  LEU76      -0.2715
     94  CB         5.2640   32.9980    7.3140 C.3    76  LEU76       0.0311
     95  CG         5.0570   34.4530    7.6420 C.3    76  LEU76       0.0022
     96  CD1        3.5830   34.6290    7.9500 C.3    76  LEU76       0.0001
     97  CD2        5.9650   34.9170    8.7820 C.3    76  LEU76       0.0001
     98  N          6.9650   31.3050    5.1500 N.am   77  HIS77      -0.1959
     99  CA         7.5790   30.0730    4.6530 C.3    77  HIS77       0.1787
    100  C          7.9160   28.9640    5.6270 C.2    77  HIS77       0.2620
    101  O          8.0950   27.8260    5.2070 O.2    77  HIS77      -0.2715
    102  CB         8.8010   30.3900    3.7860 C.3    77  HIS77       0.0785
    103  CG         8.4630   31.0020    2.4600 C.ar   77  HIS77       0.0821
    104  ND1        8.2240   32.3540    2.2990 N.ar   77  HIS77      -0.2267
    105  CD2        8.3760   30.4530    1.2240 C.ar   77  HIS77       0.1154
    106  CE1        7.9770   32.6030    1.0210 C.ar   77  HIS77       0.1986
    107  NE2        8.0740   31.4690    0.3500 N.ar   77  HIS77      -0.2212
    108  N          8.0630   29.2660    6.9120 N.am   78  GLN78      -0.1963
    109  CA         8.4430   28.1990    7.8240 C.3    78  GLN78       0.1733
    110  C          7.8390   28.4580    9.1880 C.2    78  GLN78       0.2616
    111  O          7.5780   29.5910    9.5460 O.2    78  GLN78      -0.2715
    112  CB         9.9620   28.1690    7.9500 C.3    78  GLN78       0.0408
    113  CG        10.5090   26.9240    8.6350 C.3    78  GLN78       0.0908
    114  CD        11.8820   26.5630    8.1360 C.2    78  GLN78       0.2608
    115  OE1       12.0640   26.2480    6.9520 O.2    78  GLN78      -0.2717
    116  NE2       12.8720   26.6920    9.0000 N.am   78  GLN78      -0.0878
    117  N          7.6700   27.3970    9.9630 N.am   79  ASP79      -0.1971
    118  CA         7.2190   27.5430   11.3480 C.3    79  ASP79       0.1709
    119  C          8.3470   27.2060   12.3150 C.2    79  ASP79       0.2293
    120  O          9.3820   26.6820   11.9140 O.2    79  ASP79      -0.2864
    121  CB         5.9600   26.7360   11.6410 C.3    79  ASP79       0.1436
    122  CG         6.1690   25.2550   11.5200 C.2    79  ASP79       0.3671
    123  OD1        7.0080   24.7190   12.2520 O.co2  79  ASP79      -0.2456
    124  OD2        5.4560   24.6090   10.7220 O.co2  79  ASP79      -0.2456
    125  N          9.4790   23.4450   12.6940 N.3    82  LYS82      -0.1245
    126  CA        10.3860   22.9900   11.6500 C.3    82  LYS82       0.1561
    127  C         11.7730   23.5520   11.8320 C.2    82  LYS82       0.2260
    128  O         12.7710   22.8340   11.6980 O.2    82  LYS82      -0.2867
    129  CB         9.8430   23.3600   10.2640 C.3    82  LYS82       0.0271
    130  CG         8.7660   22.4170    9.7600 C.3    82  LYS82       0.0035
    131  CD         7.8300   23.1190    8.7840 C.3    82  LYS82       0.0206
    132  CE         6.4400   22.4760    8.7730 C.3    82  LYS82       0.1093
    133  NZ         6.4430   21.1120    9.3710 N.3    82  LYS82      -0.1314
    134  N          4.2420   25.2100   16.3840 N.3   124  GLN124     -0.1245
    135  CA         3.5650   25.0910   15.0700 C.3   124  GLN124      0.1566
    136  C          2.8100   26.3600   14.6770 C.2   124  GLN124      0.2260
    137  O          2.5350   26.5680   13.4830 O.2   124  GLN124     -0.2867
    138  CB         2.5920   23.9130   15.0810 C.3   124  GLN124      0.0367
    139  CG         3.2170   22.5840   14.7860 C.3   124  GLN124      0.0905
    140  CD         2.2090   21.5980   14.2330 C.2   124  GLN124      0.2608
    141  OE1        2.5750   20.5580   13.6770 O.2   124  GLN124     -0.2717
    142  NE2        0.9240   21.9290   14.3660 N.am  124  GLN124     -0.0878
    143  N          5.3430   31.5210   13.2490 N.3   127  LEU127     -0.1245
    144  CA         5.8280   31.4790   11.8790 C.3   127  LEU127      0.1561
    145  C          6.9710   32.4580   11.6470 C.2   127  LEU127      0.2260
    146  O          6.9780   33.5710   12.1910 O.2   127  LEU127     -0.2867
    147  CB         4.6670   31.7380   10.9060 C.3   127  LEU127      0.0270
    148  CG         3.4160   30.8560   11.0940 C.3   127  LEU127      0.0019
    149  CD1        2.4120   31.1920    9.9900 C.3   127  LEU127      0.0001
    150  CD2        3.7650   29.3510   11.0830 C.3   127  LEU127      0.0001
    151  N          0.4930   32.9720   14.8380 N.3   137  ALA137     -0.1231
    152  CA        -0.5830   32.5230   13.9350 C.3   137  ALA137      0.1694
    153  C         -1.7700   32.0120   14.7460 C.2   137  ALA137      0.2592
    154  O         -1.6090   31.5700   15.8880 O.2   137  ALA137     -0.2718
    155  CB        -0.0850   31.4250   13.0050 C.3   137  ALA137      0.0304
    156  N         -2.9570   32.1240   14.1630 N.am  138  ASP138     -0.1974
    157  CA        -4.2150   31.6810   14.8030 C.3   138  ASP138      0.1709
    158  C         -4.6290   32.4550   16.0240 C.2   138  ASP138      0.2293
    159  O         -5.4130   31.9730   16.8520 O.2   138  ASP138     -0.2864
    160  CB        -4.1890   30.1930   15.0890 C.3   138  ASP138      0.1436
    161  CG        -4.2080   29.3550   13.8080 C.2   138  ASP138      0.3671
    162  OD1       -4.2130   29.9400   12.6940 O.co2 138  ASP138     -0.2456
    163  OD2       -4.2270   28.1170   13.9170 O.co2 138  ASP138     -0.2456
@<TRIPOS>BOND
     1     1     2    1
     2     5     2    1
     3     5     6    1
     4     2     3    1
     5    37    36    1
     6    32    31    2
     7    36    35    1
     8     8     7   ar
     9    35    34    1
    10    31    30    1
    11    34    33    1
    12     7     6    1
    13     7     9   ar
    14     3     4    2
    15    33    30    1
    16    30    29    1
    17   107   106   ar
    18   107   105   ar
    19   106   104   ar
    20   105   103   ar
    21    88    86   ar
    22    88    89   ar
    23    86    84   ar
    24    89    87   ar
    25   104   103   ar
    26    84    83    1
    27    84    85   ar
    28   103   102    1
    29    87    85   ar
    30    83    80    1
    31    38    39    1
    32    16    14    1
    33    39    40    1
    34    39    42    1
    35    10    11    1
    36    40    41    2
    37   102    99    1
    38    62    61    2
    39    80    79    1
    40    80    81    1
    41    79    72   am
    42    82    81    2
    43    25    24    2
    44    14    11    1
    45    14    15    1
    46    24    23    1
    47    11    12    1
    48    17    15    1
    49    81    90   am
    50    99    98    1
    51    99   100    1
    52    71    72    1
    53    71    70    1
    54    71    74    1
    55    61    70   am
    56    61    60    1
    57    72    73    2
    58    59    60    1
    59    43    44    1
    60    98    92   am
    61   101   100    2
    62    90    91    1
    63    92    93    2
    64    92    91    1
    65    23    22    1
    66    23    26    1
    67   100   108   am
    68    12    18   am
    69    12    13    2
    70    91    94    1
    71    60    63    1
    72    74    75    1
    73    18    19    1
    74    45    46    2
    75    45    44    1
    76    27    26    1
    77    44    47    1
    78    75    76    1
    79    26    28    1
    80    21    20    2
    81   108   109    1
    82    78    76   ar
    83   115   114    2
    84    63    64    1
    85    76    77   ar
    86    19    20    1
    87    94    95    1
    88    47    48    1
    89    95    96    1
    90    95    97    1
    91   109   112    1
    92   109   110    1
    93   112   113    1
    94    64    66   ar
    95    64    65   ar
    96   114   113    1
    97   114   116   am
    98    66    68   ar
    99    48    49    1
   100   132   131    1
   101   132   133    1
   102   131   130    1
   103    65    67   ar
   104   110   111    2
   105   110   117   am
   106    68    69   ar
   107    57    56    1
   108   130   129    1
   109   117   118    1
   110   149   148    1
   111    49    50    1
   112    67    69   ar
   113   129   126    1
   114    54    53    1
   115    54    55    2
   116   124   122   ar
   117   147   148    1
   118   147   144    1
   119    50    51    1
   120    56    53    1
   121    56    58    1
   122   150   148    1
   123    53    52    1
   124   118   121    1
   125   118   119    1
   126   122   121    1
   127   122   123   ar
   128   145   144    1
   129   145   146    2
   130   126   127    1
   131   126   125    1
   132   128   127    2
   133   144   143    1
   134   120   119    2
   135   162   161   ar
   136   155   152    1
   137   137   136    2
   138   141   140    2
   139   161   163   ar
   140   161   160    1
   141   152   153    1
   142   152   151    1
   143   156   153   am
   144   156   157    1
   145   140   142   am
   146   140   139    1
   147   136   135    1
   148   153   154    2
   149   139   138    1
   150   157   160    1
   151   157   158    1
   152   135   138    1
   153   135   134    1
   154   158   159    2
