@<TRIPOS>MOLECULE
tmp/2r3kA00.pdb
 175 167 0 0 0
SMALL
GASTEIGER

@<TRIPOS>ATOM
      1  N         -0.7880   24.8840   -1.8700 N.3     8  GLU8       -0.1245
      2  CA        -0.4480   23.7120   -1.0790 C.3     8  GLU8        0.1567
      3  C         -0.9490   23.7890    0.3560 C.2     8  GLU8        0.2260
      4  O         -1.1960   24.8770    0.8920 O.2     8  GLU8       -0.2867
      5  CB         1.0630   23.4800   -1.0960 C.3     8  GLU8        0.0388
      6  CG         1.7960   24.0930    0.0840 C.3     8  GLU8        0.1160
      7  CD         3.2810   24.2060   -0.1500 C.2     8  GLU8        0.3649
      8  OE1        3.6810   24.3610   -1.3190 O.co2   8  GLU8       -0.2457
      9  OE2        4.0460   24.1590    0.8360 O.co2   8  GLU8       -0.2457
     10  N         -0.3950   23.8490    4.0950 N.3    10  ILE10      -0.1231
     11  CA         0.7100   24.2160    4.9570 C.3    10  ILE10       0.1692
     12  C          0.4370   23.8680    6.4070 C.2    10  ILE10       0.2593
     13  O          0.9830   24.4880    7.3300 O.2    10  ILE10      -0.2718
     14  CB         1.0970   25.6900    4.8080 C.3    10  ILE10       0.0266
     15  CG1       -0.0730   26.5990    5.1770 C.3    10  ILE10       0.0019
     16  CG2        1.5680   25.9680    3.3850 C.3    10  ILE10       0.0020
     17  CD1        0.2170   28.0760    4.9610 C.3    10  ILE10       0.0001
     18  N         -0.3910   22.8500    6.6080 N.am   11  GLY11      -0.1942
     19  CA        -0.6990   22.3890    7.9480 C.3    11  GLY11       0.2014
     20  C         -2.1800   22.1680    8.1820 C.2    11  GLY11       0.2639
     21  O         -3.0190   22.4460    7.3180 O.2    11  GLY11      -0.2714
     22  N         -2.4910   21.6580    9.3660 N.am   12  GLU12      -0.1963
     23  CA        -3.8570   21.4050    9.7620 C.3    12  GLU12       0.1733
     24  C         -4.1010   22.1330   11.0680 C.2    12  GLU12       0.2616
     25  O         -3.8830   21.5840   12.1510 O.2    12  GLU12      -0.2715
     26  CB        -4.0990   19.8980    9.9360 C.3    12  GLU12       0.0429
     27  CG        -3.0850   19.0120    9.2040 C.3    12  GLU12       0.1163
     28  CD        -3.5620   17.5740    9.0460 C.2    12  GLU12       0.3649
     29  OE1       -3.8640   17.1690    7.9020 O.co2  12  GLU12      -0.2457
     30  OE2       -3.6160   16.8460   10.0640 O.co2  12  GLU12      -0.2457
     31  N         -4.5250   23.3860   10.9650 N.am   13  GLY13      -0.1955
     32  CA        -4.7940   24.1960   12.1430 C.3    13  GLY13       0.1869
     33  C         -5.8020   23.5030   13.0570 C.2    13  GLY13       0.2309
     34  O         -6.2990   22.4170   12.7480 O.2    13  GLY13      -0.2863
     35  N         -5.0670   24.7020    6.6370 N.3    18  VAL18      -0.1245
     36  CA        -4.4980   25.9840    6.2300 C.3    18  VAL18       0.1561
     37  C         -3.7650   25.7510    4.9380 C.2    18  VAL18       0.2260
     38  O         -3.0170   24.7750    4.8040 O.2    18  VAL18      -0.2867
     39  CB        -3.5270   26.5630    7.2740 C.3    18  VAL18       0.0252
     40  CG1       -2.9270   27.8780    6.7630 C.3    18  VAL18       0.0019
     41  CG2       -4.2370   26.7960    8.5860 C.3    18  VAL18       0.0019
     42  N         -2.0230   32.9490    3.2620 N.3    31  ALA31      -0.1245
     43  CA        -2.3410   31.7200    3.9730 C.3    31  ALA31       0.1562
     44  C         -3.8510   31.7280    4.0790 C.2    31  ALA31       0.2260
     45  O         -4.4430   32.7090    4.5280 O.2    31  ALA31      -0.2867
     46  CB        -1.7060   31.7080    5.3760 C.3    31  ALA31       0.0290
     47  N          0.5300   38.1190   13.0010 N.3    57  VAL57      -0.1245
     48  CA         0.2560   37.7920   11.5920 C.3    57  VAL57       0.1561
     49  C         -1.0090   38.5640   11.1540 C.2    57  VAL57       0.2260
     50  O         -2.0680   38.4540   11.7830 O.2    57  VAL57      -0.2867
     51  CB         0.0910   36.2680   11.3560 C.3    57  VAL57       0.0252
     52  CG1       -0.2330   35.9780    9.8990 C.3    57  VAL57       0.0019
     53  CG2        1.3770   35.5350   11.7400 C.3    57  VAL57       0.0019
     54  N         -4.8690   35.2650    5.6320 N.3    73  PHE73      -0.1227
     55  CA        -3.8060   35.8940    6.4240 C.3    73  PHE73       0.1736
     56  C         -2.5980   36.1840    5.5670 C.2    73  PHE73       0.2595
     57  O         -2.3840   35.5520    4.5440 O.2    73  PHE73      -0.2718
     58  CB        -3.3400   34.9560    7.5480 C.3    73  PHE73       0.0547
     59  CG        -4.3200   34.8000    8.6560 C.ar   73  PHE73      -0.0202
     60  CD1       -4.3840   35.7320    9.6790 C.ar   73  PHE73      -0.0042
     61  CD2       -5.1240   33.6700    8.7280 C.ar   73  PHE73      -0.0042
     62  CE1       -5.2650   35.5710   10.7340 C.ar   73  PHE73      -0.0003
     63  CE2       -6.0210   33.5050    9.7890 C.ar   73  PHE73      -0.0003
     64  CZ        -6.0860   34.4580   10.7870 C.ar   73  PHE73      -0.0000
     65  N         -1.7490   37.0670    6.0660 N.am   74  GLU74      -0.1965
     66  CA        -0.4440   37.2930    5.4870 C.3    74  GLU74       0.1733
     67  C          0.2790   35.9350    5.5510 C.2    74  GLU74       0.2616
     68  O          0.0840   35.1600    6.5000 O.2    74  GLU74      -0.2715
     69  CB         0.3000   38.3380    6.3260 C.3    74  GLU74       0.0429
     70  CG         1.7290   38.0280    6.6370 C.3    74  GLU74       0.1163
     71  CD         2.3580   39.0580    7.5940 C.2    74  GLU74       0.3649
     72  OE1        1.6870   39.5200    8.5430 O.co2  74  GLU74      -0.2457
     73  OE2        3.5440   39.3450    7.4280 O.co2  74  GLU74      -0.2457
     74  N          1.1060   35.6510    4.5540 N.am   75  PHE75      -0.1960
     75  CA         1.8260   34.3760    4.4780 C.3    75  PHE75       0.1771
     76  C          3.2770   34.5090    4.9630 C.2    75  PHE75       0.2619
     77  O          3.9880   35.4020    4.5270 O.2    75  PHE75      -0.2715
     78  CB         1.8390   33.8760    3.0380 C.3    75  PHE75       0.0574
     79  CG         2.6850   32.6540    2.8200 C.ar   75  PHE75      -0.0200
     80  CD1        2.1680   31.3990    3.0640 C.ar   75  PHE75      -0.0042
     81  CD2        3.9590   32.7580    2.3070 C.ar   75  PHE75      -0.0042
     82  CE1        2.9100   30.2800    2.8640 C.ar   75  PHE75      -0.0003
     83  CE2        4.7330   31.6290    2.1080 C.ar   75  PHE75      -0.0003
     84  CZ         4.2020   30.3840    2.3720 C.ar   75  PHE75      -0.0000
     85  N          3.7070   33.5900    5.8380 N.am   76  LEU76      -0.1963
     86  CA         5.0990   33.5450    6.2720 C.3    76  LEU76       0.1728
     87  C          5.6160   32.1490    5.9420 C.2    76  LEU76       0.2616
     88  O          4.8850   31.1450    6.0770 O.2    76  LEU76      -0.2715
     89  CB         5.2680   33.8830    7.7690 C.3    76  LEU76       0.0311
     90  CG         5.3520   35.3890    8.0610 C.3    76  LEU76       0.0022
     91  CD1        3.9660   35.9670    8.1920 C.3    76  LEU76       0.0001
     92  CD2        6.1980   35.7000    9.3130 C.3    76  LEU76       0.0001
     93  N          6.8600   32.0890    5.4780 N.am   77  HIS77      -0.1959
     94  CA         7.4400   30.8530    4.9870 C.3    77  HIS77       0.1787
     95  C          7.7770   29.7930    5.9950 C.2    77  HIS77       0.2620
     96  O          7.7640   28.6100    5.6750 O.2    77  HIS77      -0.2715
     97  CB         8.6610   31.1420    4.1190 C.3    77  HIS77       0.0785
     98  CG         8.3330   31.8020    2.8100 C.ar   77  HIS77       0.0821
     99  ND1        8.1630   33.1690    2.6830 N.ar   77  HIS77      -0.2267
    100  CD2        8.2010   31.2860    1.5640 C.ar   77  HIS77       0.1154
    101  CE1        7.9400   33.4620    1.4130 C.ar   77  HIS77       0.1986
    102  NE2        7.9650   32.3370    0.7140 N.ar   77  HIS77      -0.2212
    103  N          8.1330   30.1870    7.2080 N.am   78  GLN78      -0.1963
    104  CA         8.5140   29.1720    8.1700 C.3    78  GLN78       0.1733
    105  C          7.9350   29.4210    9.5450 C.2    78  GLN78       0.2616
    106  O          7.6130   30.5510    9.8970 O.2    78  GLN78      -0.2715
    107  CB        10.0350   29.0680    8.2550 C.3    78  GLN78       0.0408
    108  CG        10.5290   27.7540    8.8740 C.3    78  GLN78       0.0908
    109  CD        11.9010   27.3850    8.4000 C.2    78  GLN78       0.2608
    110  OE1       12.1610   27.3290    7.1950 O.2    78  GLN78      -0.2717
    111  NE2       12.8150   27.1790    9.3400 N.am   78  GLN78      -0.0878
    112  N          7.8290   28.3590   10.3250 N.am   79  ASP79      -0.1971
    113  CA         7.3580   28.4720   11.7170 C.3    79  ASP79       0.1709
    114  C          8.4760   28.0850   12.7010 C.2    79  ASP79       0.2293
    115  O          9.4890   27.4890   12.3070 O.2    79  ASP79      -0.2864
    116  CB         6.0690   27.6830   11.9550 C.3    79  ASP79       0.1436
    117  CG         6.2670   26.1690   11.8110 C.2    79  ASP79       0.3671
    118  OD1        7.0990   25.6110   12.5430 O.co2  79  ASP79      -0.2456
    119  OD2        5.5780   25.5450   10.9740 O.co2  79  ASP79      -0.2456
    120  N          9.5530   24.2380   13.0040 N.3    82  LYS82      -0.1245
    121  CA        10.4380   23.7890   11.9160 C.3    82  LYS82       0.1561
    122  C         11.8540   24.3520   12.0840 C.2    82  LYS82       0.2260
    123  O         12.8440   23.6490   11.8600 O.2    82  LYS82      -0.2867
    124  CB         9.8560   24.2020   10.5520 C.3    82  LYS82       0.0271
    125  CG         8.7980   23.2450   10.0300 C.3    82  LYS82       0.0035
    126  CD         7.8080   23.9510    9.1210 C.3    82  LYS82       0.0206
    127  CE         6.4640   23.2320    9.1080 C.3    82  LYS82       0.1093
    128  NZ         6.1830   22.6150    7.7820 N.3    82  LYS82      -0.1314
    129  N          2.0560   28.1700   20.7180 N.3   122  LYS122     -0.1245
    130  CA         2.9190   27.0100   20.5500 C.3   122  LYS122      0.1561
    131  C          3.8760   27.2810   19.3890 C.2   122  LYS122      0.2260
    132  O          3.6020   28.1580   18.5410 O.2   122  LYS122     -0.2867
    133  CB         2.1040   25.7440   20.2980 C.3   122  LYS122      0.0271
    134  CG         1.2890   25.7930   19.0230 C.3   122  LYS122      0.0035
    135  CD         0.2010   24.7290   19.0310 C.3   122  LYS122      0.0206
    136  CE        -1.1720   25.3530   18.8660 C.3   122  LYS122      0.1093
    137  NZ        -1.9640   24.6620   17.8150 N.3   122  LYS122     -0.1314
    138  N          4.4820   25.9640   16.6520 N.3   124  GLN124     -0.1231
    139  CA         3.8220   25.8590   15.3400 C.3   124  GLN124      0.1698
    140  C          3.0900   27.1160   14.9110 C.2   124  GLN124      0.2592
    141  O          2.9450   27.3580   13.7130 O.2   124  GLN124     -0.2718
    142  CB         2.8860   24.6550   15.2750 C.3   124  GLN124      0.0381
    143  CG         2.2480   24.4430   13.9120 C.3   124  GLN124      0.0905
    144  CD         1.4210   23.1640   13.8390 C.2   124  GLN124      0.2608
    145  OE1        1.2320   22.4710   14.8430 O.2   124  GLN124     -0.2717
    146  NE2        0.9380   22.8390   12.6420 N.am  124  GLN124     -0.0878
    147  N          2.6160   27.9140   15.8660 N.am  125  ASN125     -0.1974
    148  CA         1.9320   29.1370   15.5040 C.3   125  ASN125      0.1688
    149  C          2.7490   30.4080   15.6600 C.2   125  ASN125      0.2292
    150  O          2.2060   31.5130   15.6720 O.2   125  ASN125     -0.2864
    151  CB         0.5050   29.2440   16.0450 C.3   125  ASN125      0.1181
    152  CG         0.4300   29.1180   17.5240 C.2   125  ASN125      0.2629
    153  OD1        1.2830   29.6460   18.2500 O.2   125  ASN125     -0.2716
    154  ND2       -0.6680   28.5040   18.0100 N.am  125  ASN125     -0.0877
    155  N          5.4700   32.3550   13.6300 N.3   127  LEU127     -0.1245
    156  CA         5.9770   32.3720   12.2720 C.3   127  LEU127      0.1561
    157  C          7.1300   33.3140   12.0900 C.2   127  LEU127      0.2260
    158  O          7.1580   34.4220   12.6770 O.2   127  LEU127     -0.2867
    159  CB         4.8300   32.7120   11.2950 C.3   127  LEU127      0.0270
    160  CG         3.6020   31.7990   11.5440 C.3   127  LEU127      0.0019
    161  CD1        2.4300   32.0840   10.5510 C.3   127  LEU127      0.0001
    162  CD2        4.0390   30.3440   11.4590 C.3   127  LEU127      0.0001
    163  N          0.5840   33.8690   15.3400 N.3   137  ALA137     -0.1231
    164  CA        -0.4890   33.4870   14.4340 C.3   137  ALA137      0.1694
    165  C         -1.6690   32.8960   15.2380 C.2   137  ALA137      0.2592
    166  O         -1.4830   32.3630   16.3430 O.2   137  ALA137     -0.2718
    167  CB         0.0110   32.4850   13.4230 C.3   137  ALA137      0.0304
    168  N         -2.8680   33.0140   14.6830 N.am  138  ASP138     -0.1974
    169  CA        -4.0940   32.5180   15.3380 C.3   138  ASP138      0.1709
    170  C         -4.4740   33.2600   16.6180 C.2   138  ASP138      0.2293
    171  O         -5.1910   32.7290   17.4710 O.2   138  ASP138     -0.2864
    172  CB        -4.0040   31.0210   15.5850 C.3   138  ASP138      0.1436
    173  CG        -4.0830   30.2250   14.3120 C.2   138  ASP138      0.3671
    174  OD1       -4.1770   30.8460   13.2270 O.co2 138  ASP138     -0.2456
    175  OD2       -4.0650   28.9800   14.3850 O.co2 138  ASP138     -0.2456
@<TRIPOS>BOND
     1     1     2    1
     2     8     7   ar
     3     5     2    1
     4     5     6    1
     5     2     3    1
     6     7     6    1
     7     7     9   ar
     8     3     4    2
     9   102   101   ar
    10   102   100   ar
    11   101    99   ar
    12   100    98   ar
    13    83    81   ar
    14    83    84   ar
    15    81    79   ar
    16    84    82   ar
    17    99    98   ar
    18    98    97    1
    19    79    78    1
    20    79    80   ar
    21    82    80   ar
    22    78    75    1
    23    42    43    1
    24    16    14    1
    25    43    44    1
    26    43    46    1
    27    44    45    2
    28    10    11    1
    29    97    94    1
    30    75    74    1
    31    75    76    1
    32    77    76    2
    33    57    56    2
    34    74    67   am
    35    38    37    2
    36    14    11    1
    37    14    15    1
    38    37    36    1
    39    11    12    1
    40    17    15    1
    41    76    85   am
    42    94    93    1
    43    94    95    1
    44    93    87   am
    45    66    67    1
    46    66    65    1
    47    66    69    1
    48    67    68    2
    49    56    65   am
    50    56    55    1
    51    54    55    1
    52    96    95    2
    53    85    86    1
    54    87    88    2
    55    87    86    1
    56    95   103   am
    57    36    35    1
    58    36    39    1
    59    86    89    1
    60    69    70    1
    61    12    18   am
    62    12    13    2
    63    55    58    1
    64    18    19    1
    65    70    71    1
    66    40    39    1
    67   110   109    2
    68   103   104    1
    69    39    41    1
    70    21    20    2
    71    73    71   ar
    72    58    59    1
    73    71    72   ar
    74    89    90    1
    75   128   127    1
    76    29    28   ar
    77    19    20    1
    78    90    91    1
    79    90    92    1
    80   104   107    1
    81   104   105    1
    82    20    22   am
    83   107   108    1
    84   109   108    1
    85   109   111   am
    86    59    61   ar
    87    59    60   ar
    88    61    63   ar
    89    28    27    1
    90    28    30   ar
    91   127   126    1
    92   126   125    1
    93    27    26    1
    94    22    23    1
    95   105   106    2
    96   105   112   am
    97    60    62   ar
    98    23    26    1
    99    23    24    1
   100    63    64   ar
   101    52    51    1
   102   125   124    1
   103   112   113    1
   104   161   160    1
   105   124   121    1
   106    62    64   ar
   107    31    24   am
   108    31    32    1
   109   119   117   ar
   110    24    25    2
   111    49    48    1
   112    49    50    2
   113   159   160    1
   114   159   156    1
   115    51    48    1
   116    51    53    1
   117   162   160    1
   118    48    47    1
   119   113   116    1
   120   113   114    1
   121   117   116    1
   122   117   118   ar
   123   123   122    2
   124   121   122    1
   125   121   120    1
   126   157   156    1
   127   157   158    2
   128    32    33    1
   129   156   155    1
   130   115   114    2
   131   146   144   am
   132    34    33    2
   133   174   173   ar
   134   167   164    1
   135   141   140    2
   136   144   143    1
   137   144   145    2
   138   143   142    1
   139   173   175   ar
   140   173   172    1
   141   164   165    1
   142   164   163    1
   143   168   165   am
   144   168   169    1
   145   140   139    1
   146   140   147   am
   147   165   166    2
   148   142   139    1
   149   169   172    1
   150   169   170    1
   151   139   138    1
   152   148   149    1
   153   148   147    1
   154   148   151    1
   155   149   150    2
   156   151   152    1
   157   170   171    2
   158   152   154   am
   159   152   153    2
   160   137   136    1
   161   132   131    2
   162   136   135    1
   163   134   135    1
   164   134   133    1
   165   131   130    1
   166   133   130    1
   167   130   129    1
