@<TRIPOS>MOLECULE
tmp/2r3lA00.pdb
 193 185 0 0 0
SMALL
GASTEIGER

@<TRIPOS>ATOM
      1  N         -0.9240   25.4230   -1.3150 N.3     8  GLU8       -0.1231
      2  CA        -0.6370   24.2390   -0.5050 C.3     8  GLU8        0.1699
      3  C         -1.1200   24.4090    0.9230 C.2     8  GLU8        0.2592
      4  O         -1.2570   25.5360    1.4210 O.2     8  GLU8       -0.2718
      5  CB         0.8580   23.9270   -0.5080 C.3     8  GLU8        0.0402
      6  CG         1.7350   25.1040   -0.0770 C.3     8  GLU8        0.1161
      7  CD         3.2180   24.7600   -0.0650 C.2     8  GLU8        0.3649
      8  OE1        3.7340   24.3150   -1.1130 O.co2   8  GLU8       -0.2457
      9  OE2        3.8680   24.9450    0.9880 O.co2   8  GLU8       -0.2457
     10  N         -1.3810   23.2860    1.5890 N.am    9  LYS9       -0.1966
     11  CA        -1.7800   23.3180    2.9850 C.3     9  LYS9        0.1728
     12  C         -0.5200   23.5840    3.7880 C.2     9  LYS9        0.2616
     13  O          0.5270   22.9990    3.5140 O.2     9  LYS9       -0.2715
     14  CB        -2.3850   21.9660    3.4060 C.3     9  LYS9        0.0311
     15  CG        -2.9790   21.9630    4.8070 C.3     9  LYS9        0.0038
     16  CD        -3.2330   20.5410    5.3010 C.3     9  LYS9        0.0206
     17  CE        -4.6670   20.3670    5.7790 C.3     9  LYS9        0.1093
     18  NZ        -4.7760   19.3480    6.8650 N.3     9  LYS9       -0.1314
     19  N         -0.6070   24.4830    4.7550 N.am   10  ILE10      -0.1963
     20  CA         0.5470   24.8220    5.5680 C.3    10  ILE10       0.1727
     21  C          0.3190   24.4850    7.0350 C.2    10  ILE10       0.2617
     22  O          0.9650   25.0420    7.9220 O.2    10  ILE10      -0.2715
     23  CB         0.9370   26.3110    5.4220 C.3    10  ILE10       0.0290
     24  CG1       -0.1890   27.2190    5.9070 C.3    10  ILE10       0.0022
     25  CG2        1.2890   26.6300    3.9810 C.3    10  ILE10       0.0023
     26  CD1        0.0870   28.7110    5.6740 C.3    10  ILE10       0.0001
     27  N         -0.6020   23.5670    7.2860 N.am   11  GLY11      -0.1940
     28  CA        -0.8850   23.1460    8.6450 C.3    11  GLY11       0.2014
     29  C         -2.3690   22.9860    8.8970 C.2    11  GLY11       0.2639
     30  O         -3.1970   23.2700    8.0260 O.2    11  GLY11      -0.2714
     31  N         -2.6980   22.5110   10.0920 N.am   12  GLU12      -0.1963
     32  CA        -4.0780   22.3240   10.4850 C.3    12  GLU12       0.1733
     33  C         -4.3500   23.1370   11.7350 C.2    12  GLU12       0.2616
     34  O         -4.0410   22.7090   12.8470 O.2    12  GLU12      -0.2715
     35  CB        -4.3870   20.8400   10.7330 C.3    12  GLU12       0.0429
     36  CG        -3.1880   19.9020   10.5860 C.3    12  GLU12       0.1163
     37  CD        -3.6040   18.4550   10.3490 C.2    12  GLU12       0.3649
     38  OE1       -4.2190   18.1800    9.2950 O.co2  12  GLU12      -0.2457
     39  OE2       -3.3280   17.6000   11.2220 O.co2  12  GLU12      -0.2457
     40  N         -4.9190   24.3210   11.5500 N.am   13  GLY13      -0.1955
     41  CA        -5.2360   25.1970   12.6710 C.3    13  GLY13       0.1869
     42  C         -6.1680   24.4960   13.6630 C.2    13  GLY13       0.2309
     43  O         -6.4830   23.3110   13.5110 O.2    13  GLY13      -0.2863
     44  N         -5.2020   25.6180    7.2630 N.3    18  VAL18      -0.1245
     45  CA        -4.5990   26.8450    6.7580 C.3    18  VAL18       0.1561
     46  C         -3.8990   26.5350    5.4550 C.2    18  VAL18       0.2260
     47  O         -3.2190   25.5170    5.3240 O.2    18  VAL18      -0.2867
     48  CB        -3.5960   27.4630    7.7520 C.3    18  VAL18       0.0252
     49  CG1       -3.2020   28.8620    7.2990 C.3    18  VAL18       0.0019
     50  CG2       -4.1860   27.5070    9.1590 C.3    18  VAL18       0.0019
     51  N         -1.6350   28.1780    1.9770 N.3    20  LYS20      -0.1245
     52  CA        -0.9250   29.2930    1.3670 C.3    20  LYS20       0.1561
     53  C         -1.7310   29.4820    0.0880 C.2    20  LYS20       0.2260
     54  O         -2.0980   28.4980   -0.5630 O.2    20  LYS20      -0.2867
     55  CB         0.5190   28.9000    1.0150 C.3    20  LYS20       0.0271
     56  CG         1.3140   30.0390    0.3160 C.3    20  LYS20       0.0035
     57  CD         2.7060   29.5510   -0.0890 C.3    20  LYS20       0.0206
     58  CE         3.5210   30.6560   -0.7540 C.3    20  LYS20       0.1093
     59  NZ         4.9320   30.2090   -0.8790 N.3    20  LYS20      -0.1314
     60  N         -2.0630   33.7600    3.6780 N.3    31  ALA31      -0.1245
     61  CA        -2.4070   32.5320    4.3980 C.3    31  ALA31       0.1562
     62  C         -3.9380   32.5680    4.5440 C.2    31  ALA31       0.2260
     63  O         -4.4880   33.5070    5.1070 O.2    31  ALA31      -0.2867
     64  CB        -1.7480   32.5240    5.7860 C.3    31  ALA31       0.0290
     65  N          0.6110   38.8720   13.4830 N.3    57  VAL57      -0.1245
     66  CA         0.2820   38.5780   12.0840 C.3    57  VAL57       0.1561
     67  C         -0.9890   39.3580   11.6710 C.2    57  VAL57       0.2260
     68  O         -2.0160   39.3240   12.3660 O.2    57  VAL57      -0.2867
     69  CB         0.0950   37.0650   11.8440 C.3    57  VAL57       0.0252
     70  CG1       -0.2940   36.8080   10.3800 C.3    57  VAL57       0.0019
     71  CG2        1.3850   36.3450   12.1530 C.3    57  VAL57       0.0019
     72  N         -4.9440   36.0780    6.1150 N.3    73  PHE73      -0.1227
     73  CA        -3.8480   36.6810    6.8910 C.3    73  PHE73       0.1736
     74  C         -2.6450   36.9530    6.0020 C.2    73  PHE73       0.2595
     75  O         -2.4270   36.2550    5.0150 O.2    73  PHE73      -0.2718
     76  CB        -3.3700   35.6810    7.9650 C.3    73  PHE73       0.0547
     77  CG        -4.3490   35.4610    9.0680 C.ar   73  PHE73      -0.0202
     78  CD1       -4.4530   36.3700   10.1130 C.ar   73  PHE73      -0.0042
     79  CD2       -5.1490   34.3460    9.0720 C.ar   73  PHE73      -0.0042
     80  CE1       -5.3310   36.1500   11.1380 C.ar   73  PHE73      -0.0003
     81  CE2       -6.0390   34.1200   10.0990 C.ar   73  PHE73      -0.0003
     82  CZ        -6.1210   35.0130   11.1350 C.ar   73  PHE73      -0.0000
     83  N         -1.7970   37.8730    6.4280 N.am   74  GLU74      -0.1965
     84  CA        -0.5260   38.0720    5.7470 C.3    74  GLU74       0.1733
     85  C          0.2420   36.7450    5.8610 C.2    74  GLU74       0.2616
     86  O          0.0800   35.9980    6.8440 O.2    74  GLU74      -0.2715
     87  CB         0.2730   39.2030    6.4170 C.3    74  GLU74       0.0429
     88  CG         0.9540   38.7970    7.6840 C.3    74  GLU74       0.1163
     89  CD         1.8810   39.8720    8.2370 C.2    74  GLU74       0.3649
     90  OE1        1.5770   40.4120    9.3120 O.co2  74  GLU74      -0.2457
     91  OE2        2.8900   40.1860    7.5890 O.co2  74  GLU74      -0.2457
     92  N          1.0680   36.4440    4.8640 N.am   75  PHE75      -0.1960
     93  CA         1.8010   35.1690    4.8400 C.3    75  PHE75       0.1771
     94  C          3.2520   35.3300    5.3350 C.2    75  PHE75       0.2619
     95  O          3.9350   36.2660    4.9490 O.2    75  PHE75      -0.2715
     96  CB         1.8260   34.6130    3.3920 C.3    75  PHE75       0.0574
     97  CG         2.6330   33.3620    3.2270 C.ar   75  PHE75      -0.0200
     98  CD1        2.0980   32.1070    3.5780 C.ar   75  PHE75      -0.0042
     99  CD2        3.9310   33.4150    2.7300 C.ar   75  PHE75      -0.0042
    100  CE1        2.8440   30.9170    3.4180 C.ar   75  PHE75      -0.0003
    101  CE2        4.7000   32.2250    2.5950 C.ar   75  PHE75      -0.0003
    102  CZ         4.1490   30.9810    2.9350 C.ar   75  PHE75      -0.0000
    103  N          3.6860   34.4250    6.2280 N.am   76  LEU76      -0.1963
    104  CA         5.1010   34.3560    6.6430 C.3    76  LEU76       0.1728
    105  C          5.6440   32.9770    6.2560 C.2    76  LEU76       0.2616
    106  O          4.9420   31.9850    6.3410 O.2    76  LEU76      -0.2715
    107  CB         5.2520   34.5860    8.1480 C.3    76  LEU76       0.0311
    108  CG         5.2170   36.0680    8.4950 C.3    76  LEU76       0.0022
    109  CD1        3.7730   36.5740    8.6670 C.3    76  LEU76       0.0001
    110  CD2        6.0740   36.3750    9.6880 C.3    76  LEU76       0.0001
    111  N          6.9120   32.9270    5.8730 N.am   77  HIS77      -0.1959
    112  CA         7.5070   31.7030    5.3440 C.3    77  HIS77       0.1787
    113  C          7.8690   30.5910    6.3140 C.2    77  HIS77       0.2620
    114  O          7.9430   29.4220    5.9130 O.2    77  HIS77      -0.2715
    115  CB         8.7130   32.0370    4.4670 C.3    77  HIS77       0.0785
    116  CG         8.3420   32.6120    3.1340 C.ar   77  HIS77       0.0821
    117  ND1        8.0160   33.9430    2.9590 N.ar   77  HIS77      -0.2267
    118  CD2        8.1820   32.0210    1.9240 C.ar   77  HIS77       0.1154
    119  CE1        7.7120   34.1530    1.6870 C.ar   77  HIS77       0.1986
    120  NE2        7.8150   33.0060    1.0400 N.ar   77  HIS77      -0.2212
    121  N          8.1680   30.9260    7.5650 N.am   78  GLN78      -0.1963
    122  CA         8.5480   29.8490    8.4630 C.3    78  GLN78       0.1733
    123  C          7.9730   30.0630    9.8290 C.2    78  GLN78       0.2616
    124  O          7.6490   31.1810   10.1860 O.2    78  GLN78      -0.2715
    125  CB        10.0660   29.7720    8.5750 C.3    78  GLN78       0.0408
    126  CG        10.5630   28.3730    9.0180 C.3    78  GLN78       0.0908
    127  CD        11.9630   28.0860    8.5330 C.2    78  GLN78       0.2608
    128  OE1       12.1810   27.7780    7.3400 O.2    78  GLN78      -0.2717
    129  NE2       12.9330   28.3370    9.3900 N.am   78  GLN78      -0.0878
    130  N          7.8300   28.9790   10.5820 N.am   79  ASP79      -0.1971
    131  CA         7.3790   29.0920   11.9740 C.3    79  ASP79       0.1709
    132  C          8.5160   28.7070   12.9300 C.2    79  ASP79       0.2293
    133  O          9.5540   28.1740   12.5050 O.2    79  ASP79      -0.2864
    134  CB         6.1050   28.3020   12.2170 C.3    79  ASP79       0.1436
    135  CG         6.3210   26.7710   12.1380 C.2    79  ASP79       0.3671
    136  OD1        7.1430   26.2260   12.9010 O.co2  79  ASP79      -0.2456
    137  OD2        5.6720   26.1290   11.3050 O.co2  79  ASP79      -0.2456
    138  N          9.6570   24.9230   13.1770 N.3    82  LYS82      -0.1245
    139  CA        10.5410   24.4950   12.0860 C.3    82  LYS82       0.1561
    140  C         11.9330   25.0800   12.2720 C.2    82  LYS82       0.2260
    141  O         12.9360   24.3960   12.0910 O.2    82  LYS82      -0.2867
    142  CB         9.9650   24.9000   10.7100 C.3    82  LYS82       0.0271
    143  CG        10.9050   24.6130    9.5420 C.3    82  LYS82       0.0035
    144  CD        10.1580   24.5630    8.2180 C.3    82  LYS82       0.0206
    145  CE        11.0810   24.1420    7.0840 C.3    82  LYS82       0.1093
    146  NZ        10.4330   23.1450    6.1870 N.3    82  LYS82      -0.1314
    147  N          2.1860   28.5390   21.0530 N.3   122  LYS122     -0.1245
    148  CA         3.0440   27.3920   20.8780 C.3   122  LYS122      0.1561
    149  C          3.9760   27.7310   19.7110 C.2   122  LYS122      0.2260
    150  O          3.6690   28.6110   18.9290 O.2   122  LYS122     -0.2867
    151  CB         2.2270   26.1560   20.5350 C.3   122  LYS122      0.0271
    152  CG         1.1890   26.3620   19.4610 C.3   122  LYS122      0.0035
    153  CD         0.3340   25.0840   19.3000 C.3   122  LYS122      0.0206
    154  CE        -0.9840   25.3750   18.6310 C.3   122  LYS122      0.1093
    155  NZ        -2.0570   24.4660   19.1250 N.3   122  LYS122     -0.1314
    156  N          4.5810   26.5810   16.8980 N.3   124  GLN124     -0.1231
    157  CA         3.9510   26.4980   15.5770 C.3   124  GLN124      0.1698
    158  C          3.1710   27.7470   15.1900 C.2   124  GLN124      0.2592
    159  O          2.9610   28.0070   13.9970 O.2   124  GLN124     -0.2718
    160  CB         3.0690   25.2540   15.4800 C.3   124  GLN124      0.0381
    161  CG         3.7750   23.9770   15.9370 C.3   124  GLN124      0.0905
    162  CD         3.4360   23.5970   17.3790 C.2   124  GLN124      0.2608
    163  OE1        4.0180   24.1310   18.3400 O.2   124  GLN124     -0.2717
    164  NE2        2.5130   22.6420   17.5360 N.am  124  GLN124     -0.0878
    165  N          2.7600   28.5360   16.1780 N.am  125  ASN125     -0.1974
    166  CA         2.0560   29.7670   15.8720 C.3   125  ASN125      0.1688
    167  C          2.8440   31.0680   16.0360 C.2   125  ASN125      0.2292
    168  O          2.2760   32.1740   15.9960 O.2   125  ASN125     -0.2864
    169  CB         0.6270   29.8060   16.3740 C.3   125  ASN125      0.1181
    170  CG         0.5340   29.7410   17.8450 C.2   125  ASN125      0.2629
    171  OD1        1.3840   30.2820   18.5490 O.2   125  ASN125     -0.2716
    172  ND2       -0.5090   29.0650   18.3500 N.am  125  ASN125     -0.0877
    173  N          5.5690   33.0600   14.0160 N.3   127  LEU127     -0.1245
    174  CA         6.0110   33.0720   12.6180 C.3   127  LEU127      0.1561
    175  C          7.1890   34.0390   12.4120 C.2   127  LEU127      0.2260
    176  O          7.2180   35.1300   13.0130 O.2   127  LEU127     -0.2867
    177  CB         4.8210   33.4770   11.7320 C.3   127  LEU127      0.0270
    178  CG         3.5630   32.6610   12.0130 C.3   127  LEU127      0.0019
    179  CD1        2.3710   33.0760   11.0830 C.3   127  LEU127      0.0001
    180  CD2        3.8660   31.1310   11.9120 C.3   127  LEU127      0.0001
    181  N          0.6440   34.5380   15.7700 N.3   137  ALA137     -0.1231
    182  CA        -0.4620   34.1840   14.8780 C.3   137  ALA137      0.1694
    183  C         -1.5880   33.5590   15.6970 C.2   137  ALA137      0.2592
    184  O         -1.3320   32.8530   16.6850 O.2   137  ALA137     -0.2718
    185  CB         0.0010   33.2460   13.8060 C.3   137  ALA137      0.0304
    186  N         -2.8310   33.8800   15.3280 N.am  138  ASP138     -0.1974
    187  CA        -4.0230   33.3710   16.0420 C.3   138  ASP138      0.1709
    188  C         -4.4230   34.0910   17.3370 C.2   138  ASP138      0.2293
    189  O         -5.2380   33.5870   18.1060 O.2   138  ASP138     -0.2864
    190  CB        -3.9120   31.8670   16.2570 C.3   138  ASP138      0.1436
    191  CG        -3.8440   31.0980   14.9400 C.2   138  ASP138      0.3671
    192  OD1       -3.8680   31.7470   13.8730 O.co2 138  ASP138     -0.2456
    193  OD2       -3.8050   29.8480   14.9680 O.co2 138  ASP138     -0.2456
@<TRIPOS>BOND
     1     1     2    1
     2     8     7   ar
     3    59    58    1
     4    58    57    1
     5    54    53    2
     6     5     2    1
     7     5     6    1
     8     2     3    1
     9    57    56    1
    10     6     7    1
    11     7     9   ar
    12    53    52    1
    13    56    55    1
    14     3     4    2
    15     3    10   am
    16    55    52    1
    17   120   119   ar
    18   120   118   ar
    19    52    51    1
    20    10    11    1
    21   119   117   ar
    22   118   116   ar
    23   101    99   ar
    24   101   102   ar
    25    99    97   ar
    26   102   100   ar
    27   117   116   ar
    28    11    14    1
    29    11    12    1
    30   116   115    1
    31    97    96    1
    32    97    98   ar
    33    96    93    1
    34    14    15    1
    35   100    98   ar
    36    13    12    2
    37    60    61    1
    38    12    19   am
    39    25    23    1
    40    61    62    1
    41    61    64    1
    42   115   112    1
    43    62    63    2
    44    19    20    1
    45    15    16    1
    46    93    92    1
    47    93    94    1
    48    92    85   am
    49    95    94    2
    50    75    74    2
    51    16    17    1
    52    47    46    2
    53    94   103   am
    54   112   111    1
    55   112   113    1
    56    23    20    1
    57    23    24    1
    58    46    45    1
    59    20    21    1
    60    26    24    1
    61    84    85    1
    62    84    87    1
    63    84    83    1
    64    17    18    1
    65    85    86    2
    66   111   105   am
    67   114   113    2
    68    74    83   am
    69    74    73    1
    70    72    73    1
    71   146   145    1
    72   103   104    1
    73   105   106    2
    74   105   104    1
    75   113   121   am
    76    87    88    1
    77   104   107    1
    78    45    44    1
    79    45    48    1
    80    73    76    1
    81    21    27   am
    82    21    22    2
    83   145   144    1
    84    27    28    1
    85    49    48    1
    86   128   127    2
    87   121   122    1
    88    91    89   ar
    89    88    89    1
    90    48    50    1
    91    76    77    1
    92    30    29    2
    93   107   108    1
    94   144   143    1
    95    89    90   ar
    96   122   125    1
    97   122   123    1
    98   108   109    1
    99   108   110    1
   100   127   126    1
   101   127   129   am
   102   125   126    1
   103    28    29    1
   104    29    31   am
   105    77    79   ar
   106    77    78   ar
   107    79    81   ar
   108    38    37   ar
   109   143   142    1
   110   123   124    2
   111   123   130   am
   112    31    32    1
   113    81    82   ar
   114    78    80   ar
   115    37    36    1
   116    37    39   ar
   117    70    69    1
   118    32    35    1
   119    32    33    1
   120   130   131    1
   121    36    35    1
   122   142   139    1
   123   179   178    1
   124    82    80   ar
   125   137   135   ar
   126    40    33   am
   127    40    41    1
   128    67    66    1
   129    67    68    2
   130   177   178    1
   131   177   174    1
   132    33    34    2
   133    69    66    1
   134    69    71    1
   135   180   178    1
   136   131   134    1
   137   131   132    1
   138    66    65    1
   139   139   140    1
   140   139   138    1
   141   141   140    2
   142   135   134    1
   143   135   136   ar
   144   175   174    1
   145   175   176    2
   146   133   132    2
   147   174   173    1
   148    41    42    1
   149    43    42    2
   150   185   182    1
   151   192   191   ar
   152   159   158    2
   153   182   183    1
   154   182   181    1
   155   191   193   ar
   156   191   190    1
   157   158   157    1
   158   158   165   am
   159   186   183   am
   160   186   187    1
   161   160   157    1
   162   160   161    1
   163   157   156    1
   164   183   184    2
   165   166   167    1
   166   166   165    1
   167   166   169    1
   168   161   162    1
   169   168   167    2
   170   187   190    1
   171   187   188    1
   172   169   170    1
   173   188   189    2
   174   162   164   am
   175   162   163    2
   176   170   172   am
   177   170   171    2
   178   154   155    1
   179   154   153    1
   180   150   149    2
   181   153   152    1
   182   152   151    1
   183   149   148    1
   184   151   148    1
   185   148   147    1
