@<TRIPOS>MOLECULE
tmp/2r3mA00.pdb
 193 185 0 0 0
SMALL
GASTEIGER

@<TRIPOS>ATOM
      1  N         -0.7010   24.1170   -2.1570 N.3     8  GLU8       -0.1231
      2  CA        -0.3430   22.9630   -1.3670 C.3     8  GLU8        0.1699
      3  C         -0.9100   23.0490    0.0370 C.2     8  GLU8        0.2592
      4  O         -1.1920   24.1470    0.5500 O.2     8  GLU8       -0.2718
      5  CB         1.1800   22.7890   -1.3310 C.3     8  GLU8        0.0402
      6  CG         1.9220   23.9190   -0.6380 C.3     8  GLU8        0.1161
      7  CD         3.3570   23.5580   -0.2970 C.2     8  GLU8        0.3649
      8  OE1        4.0400   22.9620   -1.1580 O.co2   8  GLU8       -0.2457
      9  OE2        3.8020   23.8600    0.8340 O.co2   8  GLU8       -0.2457
     10  N         -1.1100   21.8880    0.6480 N.am    9  LYS9       -0.1966
     11  CA        -1.6220   21.8210    2.0080 C.3     9  LYS9        0.1728
     12  C         -0.4440   21.9920    2.9610 C.2     9  LYS9        0.2616
     13  O          0.4200   21.1280    3.0470 O.2     9  LYS9       -0.2715
     14  CB        -2.3020   20.4690    2.2430 C.3     9  LYS9        0.0311
     15  CG        -2.5940   20.1510    3.6990 C.3     9  LYS9        0.0038
     16  CD        -3.2990   18.7980    3.8290 C.3     9  LYS9        0.0206
     17  CE        -4.4860   18.6950    2.8760 C.3     9  LYS9        0.1093
     18  NZ        -4.9750   17.2940    2.7270 N.3     9  LYS9       -0.1314
     19  N         -0.3990   23.1220    3.6520 N.am   10  ILE10      -0.1963
     20  CA         0.7120   23.4050    4.5610 C.3    10  ILE10       0.1727
     21  C          0.5200   22.9240    5.9830 C.2    10  ILE10       0.2617
     22  O          1.3840   23.1280    6.8390 O.2    10  ILE10      -0.2715
     23  CB         1.1230   24.8820    4.5500 C.3    10  ILE10       0.0290
     24  CG1       -0.0440   25.7740    4.9590 C.3    10  ILE10       0.0022
     25  CG2        1.6500   25.2710    3.1920 C.3    10  ILE10       0.0023
     26  CD1        0.2530   27.2560    4.7930 C.3    10  ILE10       0.0001
     27  N         -0.5910   22.2580    6.2440 N.am   11  GLY11      -0.1940
     28  CA        -0.8080   21.7410    7.5700 C.3    11  GLY11       0.2014
     29  C         -2.2510   21.6530    7.9690 C.2    11  GLY11       0.2639
     30  O         -3.1360   22.2040    7.3100 O.2    11  GLY11      -0.2714
     31  N         -2.4810   20.9560    9.0700 N.am   12  GLU12      -0.1963
     32  CA        -3.8110   20.7680    9.5950 C.3    12  GLU12       0.1733
     33  C         -3.9660   21.5450   10.8760 C.2    12  GLU12       0.2616
     34  O         -3.5950   21.0740   11.9530 O.2    12  GLU12      -0.2715
     35  CB        -4.0720   19.2810    9.8530 C.3    12  GLU12       0.0429
     36  CG        -3.0090   18.3640    9.2790 C.3    12  GLU12       0.1163
     37  CD        -3.4630   16.9240    9.2040 C.2    12  GLU12       0.3649
     38  OE1       -3.9420   16.5070    8.1290 O.co2  12  GLU12      -0.2457
     39  OE2       -3.3390   16.2050   10.2210 O.co2  12  GLU12      -0.2457
     40  N         -4.5140   22.7450   10.7640 N.am   13  GLY13      -0.1955
     41  CA        -4.7410   23.5770   11.9280 C.3    13  GLY13       0.1869
     42  C         -5.7440   22.8770   12.8400 C.2    13  GLY13       0.2309
     43  O         -6.1600   21.7430   12.5760 O.2    13  GLY13      -0.2863
     44  N         -4.9170   24.0660    6.3280 N.3    18  VAL18      -0.1245
     45  CA        -4.3820   25.3590    5.9430 C.3    18  VAL18       0.1561
     46  C         -3.6770   25.1310    4.6320 C.2    18  VAL18       0.2260
     47  O         -2.9370   24.1560    4.4820 O.2    18  VAL18      -0.2867
     48  CB        -3.3630   25.8960    6.9740 C.3    18  VAL18       0.0252
     49  CG1       -2.7760   27.2250    6.4900 C.3    18  VAL18       0.0019
     50  CG2       -4.0160   26.0680    8.3330 C.3    18  VAL18       0.0019
     51  N         -2.0020   32.3200    2.7660 N.3    31  ALA31      -0.1245
     52  CA        -2.3270   31.0960    3.4690 C.3    31  ALA31       0.1562
     53  C         -3.8400   31.1300    3.6010 C.2    31  ALA31       0.2260
     54  O         -4.4050   32.1130    4.0610 O.2    31  ALA31      -0.2867
     55  CB        -1.6750   31.0750    4.8410 C.3    31  ALA31       0.0290
     56  N         -7.0720   29.3890    5.2330 N.3    33  LYS33      -0.1245
     57  CA        -7.5530   28.4650    6.2580 C.3    33  LYS33       0.1561
     58  C         -9.0430   28.1750    6.0640 C.2    33  LYS33       0.2260
     59  O         -9.8520   29.0880    5.9920 O.2    33  LYS33      -0.2867
     60  CB        -7.3070   29.0370    7.6600 C.3    33  LYS33       0.0271
     61  CG        -7.9880   28.2590    8.7770 C.3    33  LYS33       0.0035
     62  CD        -7.7390   28.9000   10.1410 C.3    33  LYS33       0.0206
     63  CE        -7.2280   27.8810   11.1490 C.3    33  LYS33       0.1093
     64  NZ        -6.9170   28.5060   12.4630 N.3    33  LYS33      -0.1314
     65  N          0.4240   37.4500   12.5860 N.3    57  VAL57      -0.1245
     66  CA         0.2150   37.1140   11.1590 C.3    57  VAL57       0.1561
     67  C         -1.0320   37.8460   10.6740 C.2    57  VAL57       0.2260
     68  O         -2.0830   37.7480   11.2910 O.2    57  VAL57      -0.2867
     69  CB         0.0410   35.5950   10.9490 C.3    57  VAL57       0.0252
     70  CG1       -0.2740   35.2960    9.5010 C.3    57  VAL57       0.0019
     71  CG2        1.3110   34.8490   11.3540 C.3    57  VAL57       0.0019
     72  N         -4.9250   34.6830    5.0720 N.3    73  PHE73      -0.1227
     73  CA        -3.8420   35.2650    5.8620 C.3    73  PHE73       0.1736
     74  C         -2.5930   35.5450    5.0290 C.2    73  PHE73       0.2595
     75  O         -2.3810   34.9490    3.9660 O.2    73  PHE73      -0.2718
     76  CB        -3.4260   34.2720    6.9590 C.3    73  PHE73       0.0547
     77  CG        -4.3630   34.2120    8.1240 C.ar   73  PHE73      -0.0202
     78  CD1       -4.2860   35.1510    9.1360 C.ar   73  PHE73      -0.0042
     79  CD2       -5.2410   33.1680    8.2570 C.ar   73  PHE73      -0.0042
     80  CE1       -5.0920   35.0610   10.2420 C.ar   73  PHE73      -0.0003
     81  CE2       -6.0590   33.0720    9.3790 C.ar   73  PHE73      -0.0003
     82  CZ        -5.9830   34.0150   10.3650 C.ar   73  PHE73      -0.0000
     83  N         -1.7140   36.3730    5.5760 N.am   74  GLU74      -0.1965
     84  CA        -0.4170   36.5980    4.9950 C.3    74  GLU74       0.1733
     85  C          0.3110   35.2490    5.1070 C.2    74  GLU74       0.2616
     86  O          0.0900   34.4950    6.0530 O.2    74  GLU74      -0.2715
     87  CB         0.3210   37.6770    5.8070 C.3    74  GLU74       0.0429
     88  CG         1.6460   37.2550    6.3580 C.3    74  GLU74       0.1163
     89  CD         2.2880   38.3330    7.2490 C.2    74  GLU74       0.3649
     90  OE1        1.6590   38.7710    8.2430 O.co2  74  GLU74      -0.2457
     91  OE2        3.4490   38.6850    6.9850 O.co2  74  GLU74      -0.2457
     92  N          1.1050   34.9170    4.1140 N.am   75  PHE75      -0.1960
     93  CA         1.8220   33.6430    4.1030 C.3    75  PHE75       0.1771
     94  C          3.2450   33.7770    4.6370 C.2    75  PHE75       0.2619
     95  O          3.9520   34.7040    4.2680 O.2    75  PHE75      -0.2715
     96  CB         1.8830   33.1020    2.6880 C.3    75  PHE75       0.0574
     97  CG         2.6570   31.8250    2.5640 C.ar   75  PHE75      -0.0200
     98  CD1        2.0760   30.6160    2.9060 C.ar   75  PHE75      -0.0042
     99  CD2        3.9680   31.8300    2.1090 C.ar   75  PHE75      -0.0042
    100  CE1        2.7850   29.4430    2.8340 C.ar   75  PHE75      -0.0003
    101  CE2        4.6870   30.6480    2.0080 C.ar   75  PHE75      -0.0003
    102  CZ         4.0960   29.4500    2.3450 C.ar   75  PHE75      -0.0000
    103  N          3.6570   32.8320    5.5050 N.am   76  LEU76      -0.1963
    104  CA         5.0450   32.7880    6.0200 C.3    76  LEU76       0.1728
    105  C          5.5410   31.4010    5.7120 C.2    76  LEU76       0.2616
    106  O          4.8090   30.4380    5.8750 O.2    76  LEU76      -0.2715
    107  CB         5.1180   33.0390    7.5420 C.3    76  LEU76       0.0311
    108  CG         5.0970   34.5230    7.8600 C.3    76  LEU76       0.0022
    109  CD1        3.6700   34.9300    8.1650 C.3    76  LEU76       0.0001
    110  CD2        6.0450   34.8760    9.0110 C.3    76  LEU76       0.0001
    111  N          6.7810   31.3040    5.2510 N.am   77  HIS77      -0.1959
    112  CA         7.3130   30.0370    4.7670 C.3    77  HIS77       0.1787
    113  C          7.6270   28.9660    5.7650 C.2    77  HIS77       0.2620
    114  O          7.7420   27.7980    5.3920 O.2    77  HIS77      -0.2715
    115  CB         8.5530   30.2640    3.8500 C.3    77  HIS77       0.0785
    116  CG         8.2350   30.9550    2.5550 C.ar   77  HIS77       0.0821
    117  ND1        8.0290   32.3180    2.4650 N.ar   77  HIS77      -0.2267
    118  CD2        8.1520   30.4810    1.2870 C.ar   77  HIS77       0.1154
    119  CE1        7.8210   32.6490    1.2030 C.ar   77  HIS77       0.1986
    120  NE2        7.9000   31.5540    0.4660 N.ar   77  HIS77      -0.2212
    121  N          7.8480   29.3340    7.0130 N.am   78  GLN78      -0.1963
    122  CA         8.2270   28.3140    7.9970 C.3    78  GLN78       0.1733
    123  C          7.6920   28.6210    9.3930 C.2    78  GLN78       0.2616
    124  O          7.3300   29.7390    9.6840 O.2    78  GLN78      -0.2715
    125  CB         9.7460   28.2170    8.0440 C.3    78  GLN78       0.0408
    126  CG        10.2740   27.0160    8.8060 C.3    78  GLN78       0.0908
    127  CD        11.6300   26.6070    8.3230 C.2    78  GLN78       0.2608
    128  OE1       11.8760   26.5480    7.1150 O.2    78  GLN78      -0.2717
    129  NE2       12.5590   26.4270    9.2510 N.am   78  GLN78      -0.0878
    130  N          7.6050   27.5820   10.2280 N.am   79  ASP79      -0.1971
    131  CA         7.1760   27.7400   11.6070 C.3    79  ASP79       0.1709
    132  C          8.3300   27.3670   12.5470 C.2    79  ASP79       0.2293
    133  O          9.3230   26.7520   12.1180 O.2    79  ASP79      -0.2864
    134  CB         5.9140   26.9230   11.9220 C.3    79  ASP79       0.1436
    135  CG         6.1370   25.4290   11.8020 C.2    79  ASP79       0.3671
    136  OD1        7.0290   24.8950   12.4960 O.co2  79  ASP79      -0.2456
    137  OD2        5.4120   24.7900   11.0290 O.co2  79  ASP79      -0.2456
    138  N          9.4310   23.4880   12.9460 N.3    82  LYS82      -0.1245
    139  CA        10.3150   23.0040   11.8980 C.3    82  LYS82       0.1561
    140  C         11.7100   23.6000   12.0380 C.2    82  LYS82       0.2260
    141  O         12.7050   22.9140   11.8540 O.2    82  LYS82      -0.2867
    142  CB         9.7420   23.3230   10.5070 C.3    82  LYS82       0.0271
    143  CG         8.5870   22.4280   10.0960 C.3    82  LYS82       0.0035
    144  CD         7.9060   22.9420    8.8340 C.3    82  LYS82       0.0206
    145  CE         6.6850   22.1150    8.4880 C.3    82  LYS82       0.1093
    146  NZ         6.1640   22.4500    7.1320 N.3    82  LYS82      -0.1314
    147  N          2.0190   27.6990   20.5460 N.3   122  LYS122     -0.1245
    148  CA         2.8490   26.5160   20.3980 C.3   122  LYS122      0.1561
    149  C          3.7610   26.7340   19.1860 C.2   122  LYS122      0.2260
    150  O          3.4530   27.5650   18.3120 O.2   122  LYS122     -0.2867
    151  CB         1.9910   25.2990   20.1930 C.3   122  LYS122      0.0271
    152  CG         1.1080   25.3270   18.9860 C.3   122  LYS122      0.0035
    153  CD         0.1190   24.1710   19.0540 C.3   122  LYS122      0.0206
    154  CE        -1.1990   24.5420   18.4290 C.3   122  LYS122      0.1093
    155  NZ        -2.2070   23.4480   18.5730 N.3   122  LYS122     -0.1314
    156  N          4.3010   25.3040   16.5030 N.3   124  GLN124     -0.1231
    157  CA         3.6410   25.2000   15.2090 C.3   124  GLN124      0.1698
    158  C          2.9280   26.4700   14.7540 C.2   124  GLN124      0.2592
    159  O          2.7620   26.6750   13.5570 O.2   124  GLN124     -0.2718
    160  CB         2.6830   24.0010   15.1300 C.3   124  GLN124      0.0381
    161  CG         2.0310   23.8440   13.7510 C.3   124  GLN124      0.0905
    162  CD         1.1730   22.5940   13.6380 C.2   124  GLN124      0.2608
    163  OE1        0.5160   22.1910   14.6000 O.2   124  GLN124     -0.2717
    164  NE2        1.1680   21.9720   12.4580 N.am  124  GLN124     -0.0878
    165  N          2.5030   27.3210   15.6840 N.am  125  ASN125     -0.1974
    166  CA         1.8250   28.5390   15.2740 C.3   125  ASN125      0.1688
    167  C          2.6310   29.7980   15.4540 C.2   125  ASN125      0.2292
    168  O          2.0740   30.8960   15.4650 O.2   125  ASN125     -0.2864
    169  CB         0.4080   28.6730   15.8150 C.3   125  ASN125      0.1181
    170  CG         0.3360   28.5450   17.2940 C.2   125  ASN125      0.2629
    171  OD1        1.1690   29.0870   18.0180 O.2   125  ASN125     -0.2716
    172  ND2       -0.7290   27.8980   17.7780 N.am  125  ASN125     -0.0877
    173  N          5.3360   31.7020   13.4250 N.3   127  LEU127     -0.1245
    174  CA         5.8350   31.6600   12.0570 C.3   127  LEU127      0.1561
    175  C          6.9650   32.6390   11.8200 C.2   127  LEU127      0.2260
    176  O          6.9440   33.7630   12.3250 O.2   127  LEU127     -0.2867
    177  CB         4.6800   31.9070   11.0660 C.3   127  LEU127      0.0270
    178  CG         3.3890   31.0950   11.3220 C.3   127  LEU127      0.0019
    179  CD1        2.2900   31.4910   10.3290 C.3   127  LEU127      0.0001
    180  CD2        3.6820   29.5990   11.2460 C.3   127  LEU127      0.0001
    181  N          0.5040   33.2130   15.0840 N.3   137  ALA137     -0.1231
    182  CA        -0.5360   32.8090   14.1330 C.3   137  ALA137      0.1694
    183  C         -1.7290   32.1980   14.8790 C.2   137  ALA137      0.2592
    184  O         -1.5820   31.6450   15.9920 O.2   137  ALA137     -0.2718
    185  CB         0.0040   31.8340   13.1250 C.3   137  ALA137      0.0304
    186  N         -2.8920   32.2820   14.2480 N.am  138  ASP138     -0.1974
    187  CA        -4.1290   31.7910   14.8220 C.3   138  ASP138      0.1709
    188  C         -4.5260   32.5510   16.0770 C.2   138  ASP138      0.2293
    189  O         -5.2290   32.0390   16.9290 O.2   138  ASP138     -0.2864
    190  CB        -4.0470   30.3010   15.0710 C.3   138  ASP138      0.1436
    191  CG        -3.9570   29.5120   13.7790 C.2   138  ASP138      0.3671
    192  OD1       -3.8900   30.1590   12.6980 O.co2 138  ASP138     -0.2456
    193  OD2       -3.9920   28.2560   13.8280 O.co2 138  ASP138     -0.2456
@<TRIPOS>BOND
     1     1     2    1
     2     2     5    1
     3     2     3    1
     4     5     6    1
     5     8     7   ar
     6     6     7    1
     7     7     9   ar
     8     3     4    2
     9     3    10   am
    10   120   119   ar
    11   120   118   ar
    12    10    11    1
    13   119   117   ar
    14   118   116   ar
    15   101    99   ar
    16   101   102   ar
    17    11    14    1
    18    11    12    1
    19    99    97   ar
    20    14    15    1
    21   102   100   ar
    22   117   116   ar
    23   116   115    1
    24    97    96    1
    25    97    98   ar
    26    96    93    1
    27    18    17    1
    28    51    52    1
    29   100    98   ar
    30    17    16    1
    31    12    13    2
    32    12    19   am
    33    25    23    1
    34    52    53    1
    35    52    55    1
    36    53    54    2
    37    19    20    1
    38    15    16    1
    39   115   112    1
    40    75    74    2
    41    93    92    1
    42    93    94    1
    43    92    85   am
    44    95    94    2
    45    47    46    2
    46    23    20    1
    47    23    24    1
    48    20    21    1
    49    46    45    1
    50    94   103   am
    51   112   111    1
    52   112   113    1
    53    26    24    1
    54    84    85    1
    55    84    83    1
    56    84    87    1
    57    74    83   am
    58    74    73    1
    59    72    73    1
    60    85    86    2
    61    56    57    1
    62   111   105   am
    63   114   113    2
    64   103   104    1
    65   105   106    2
    66   105   104    1
    67   113   121   am
    68    87    88    1
    69    73    76    1
    70    45    44    1
    71    45    48    1
    72    21    27   am
    73    21    22    2
    74    59    58    2
    75   104   107    1
    76    58    57    1
    77    27    28    1
    78    57    60    1
    79    88    89    1
    80    49    48    1
    81    76    77    1
    82    48    50    1
    83    91    89   ar
    84   121   122    1
    85   128   127    2
    86   146   145    1
    87    89    90   ar
    88    30    29    2
    89   107   108    1
    90    28    29    1
    91    60    61    1
    92   108   109    1
    93   108   110    1
    94    29    31   am
    95   122   125    1
    96   122   123    1
    97   125   126    1
    98    77    79   ar
    99    77    78   ar
   100    38    37   ar
   101    79    81   ar
   102   127   126    1
   103   127   129   am
   104   145   144    1
   105    61    62    1
   106   144   143    1
   107    31    32    1
   108    78    80   ar
   109    37    36    1
   110    37    39   ar
   111    36    35    1
   112    81    82   ar
   113   123   124    2
   114   123   130   am
   115    70    69    1
   116    32    35    1
   117    32    33    1
   118   143   142    1
   119    62    63    1
   120   130   131    1
   121    80    82   ar
   122   179   178    1
   123   142   139    1
   124    67    66    1
   125    67    68    2
   126    40    33   am
   127    40    41    1
   128    33    34    2
   129    69    66    1
   130    69    71    1
   131   137   135   ar
   132   177   178    1
   133   177   174    1
   134    63    64    1
   135    66    65    1
   136   180   178    1
   137   131   134    1
   138   131   132    1
   139   135   134    1
   140   135   136   ar
   141   175   174    1
   142   175   176    2
   143   141   140    2
   144   139   140    1
   145   139   138    1
   146    41    42    1
   147   174   173    1
   148   133   132    2
   149   164   162   am
   150    43    42    2
   151   192   191   ar
   152   185   182    1
   153   159   158    2
   154   162   161    1
   155   162   163    2
   156   161   160    1
   157   191   193   ar
   158   191   190    1
   159   182   183    1
   160   182   181    1
   161   186   187    1
   162   186   183   am
   163   158   157    1
   164   158   165   am
   165   187   190    1
   166   187   188    1
   167   183   184    2
   168   160   157    1
   169   157   156    1
   170   166   167    1
   171   166   165    1
   172   166   169    1
   173   167   168    2
   174   169   170    1
   175   188   189    2
   176   170   172   am
   177   170   171    2
   178   150   149    2
   179   154   155    1
   180   154   153    1
   181   152   153    1
   182   152   151    1
   183   149   148    1
   184   151   148    1
   185   148   147    1
