@<TRIPOS>MOLECULE
tmp/2r3nA00.pdb
 184 175 0 0 0
SMALL
GASTEIGER

@<TRIPOS>ATOM
      1  N         -0.3900   23.9800   -1.9070 N.3     8  GLU8       -0.1245
      2  CA        -0.0010   22.8390   -1.0900 C.3     8  GLU8        0.1567
      3  C         -0.5410   22.9590    0.3300 C.2     8  GLU8        0.2260
      4  O         -0.8720   24.0560    0.7970 O.2     8  GLU8       -0.2867
      5  CB         1.5240   22.7070   -1.0510 C.3     8  GLU8        0.0388
      6  CG         2.1970   23.5710    0.0340 C.3     8  GLU8        0.1160
      7  CD         3.7130   23.4100    0.0740 C.2     8  GLU8        0.3649
      8  OE1        4.3810   23.8730   -0.8680 O.co2   8  GLU8       -0.2457
      9  OE2        4.2360   22.8540    1.0670 O.co2   8  GLU8       -0.2457
     10  N          0.0570   23.1360    4.0650 N.3    10  ILE10      -0.1231
     11  CA         1.2210   23.5200    4.8550 C.3    10  ILE10       0.1692
     12  C          1.1430   23.1860    6.3230 C.2    10  ILE10       0.2593
     13  O          2.1250   23.3490    7.0550 O.2    10  ILE10      -0.2718
     14  CB         1.6200   24.9830    4.6470 C.3    10  ILE10       0.0266
     15  CG1        0.4910   25.9140    5.0670 C.3    10  ILE10       0.0019
     16  CG2        2.0190   25.2280    3.1870 C.3    10  ILE10       0.0020
     17  CD1        0.8150   27.3710    4.8250 C.3    10  ILE10       0.0001
     18  N         -0.0080   22.6960    6.7640 N.am   11  GLY11      -0.1942
     19  CA        -0.1620   22.3260    8.1680 C.3    11  GLY11       0.2014
     20  C         -1.5860   21.9220    8.5010 C.2    11  GLY11       0.2639
     21  O         -2.5120   22.1240    7.7140 O.2    11  GLY11      -0.2714
     22  N         -1.7600   21.3460    9.6790 N.am   12  GLU12      -0.1963
     23  CA        -3.0790   20.9280   10.1070 C.3    12  GLU12       0.1733
     24  C         -3.4030   21.6990   11.3610 C.2    12  GLU12       0.2616
     25  O         -2.8080   21.4720   12.4040 O.2    12  GLU12      -0.2715
     26  CB        -3.1150   19.4120   10.3680 C.3    12  GLU12       0.0429
     27  CG        -3.7760   18.5970    9.2530 C.3    12  GLU12       0.1163
     28  CD        -3.5000   17.1000    9.3810 C.2    12  GLU12       0.3649
     29  OE1       -3.4140   16.4200    8.3360 O.co2  12  GLU12      -0.2457
     30  OE2       -3.3700   16.6140   10.5280 O.co2  12  GLU12      -0.2457
     31  N         -4.3180   22.6550   11.2350 N.am   13  GLY13      -0.1955
     32  CA        -4.7080   23.4930   12.3590 C.3    13  GLY13       0.1869
     33  C         -5.5650   22.7120   13.3500 C.2    13  GLY13       0.2309
     34  O         -5.8710   21.5290   13.1410 O.2    13  GLY13      -0.2863
     35  N         -4.5790   23.9410    6.9000 N.3    18  VAL18      -0.1245
     36  CA        -4.0930   25.1870    6.2950 C.3    18  VAL18       0.1561
     37  C         -3.4100   24.9250    4.9850 C.2    18  VAL18       0.2260
     38  O         -2.5420   24.0340    4.8820 O.2    18  VAL18      -0.2867
     39  CB        -3.0930   25.9300    7.2280 C.3    18  VAL18       0.0252
     40  CG1       -2.7120   27.2870    6.6220 C.3    18  VAL18       0.0019
     41  CG2       -3.6780   26.0890    8.6380 C.3    18  VAL18       0.0019
     42  N         -1.3530   26.5920    1.4930 N.3    20  LYS20      -0.1245
     43  CA        -0.6690   27.7260    0.8940 C.3    20  LYS20       0.1561
     44  C         -1.4930   27.9040   -0.3740 C.2    20  LYS20       0.2260
     45  O         -1.8350   26.9160   -1.0320 O.2    20  LYS20      -0.2867
     46  CB         0.7660   27.3690    0.4990 C.3    20  LYS20       0.0271
     47  CG         1.4420   28.4710   -0.4070 C.3    20  LYS20       0.0035
     48  CD         2.9540   28.1690   -0.5670 C.3    20  LYS20       0.0206
     49  CE         3.7730   29.3610   -1.1110 C.3    20  LYS20       0.1093
     50  NZ         5.1460   28.8170   -1.4050 N.3    20  LYS20      -0.1314
     51  N         -2.0490   32.1540    3.0750 N.3    31  ALA31      -0.1245
     52  CA        -2.3140   30.8900    3.7680 C.3    31  ALA31       0.1562
     53  C         -3.8420   30.8540    3.8990 C.2    31  ALA31       0.2260
     54  O         -4.4580   31.8290    4.3100 O.2    31  ALA31      -0.2867
     55  CB        -1.6610   30.8440    5.1380 C.3    31  ALA31       0.0290
     56  N         -7.0100   28.9850    5.7110 N.3    33  LYS33      -0.1245
     57  CA        -7.4450   28.0240    6.7370 C.3    33  LYS33       0.1561
     58  C         -8.8840   27.6110    6.4340 C.2    33  LYS33       0.2260
     59  O         -9.7650   28.4490    6.3520 O.2    33  LYS33      -0.2867
     60  CB        -7.3410   28.6130    8.1540 C.3    33  LYS33       0.0271
     61  CG        -7.7590   27.6130    9.2440 C.3    33  LYS33       0.0035
     62  CD        -7.3650   28.0630   10.6430 C.3    33  LYS33       0.0206
     63  CE        -7.4580   26.8720   11.6140 C.3    33  LYS33       0.1093
     64  NZ        -7.2420   27.2730   13.0340 N.3    33  LYS33      -0.1314
     65  N          0.4240   37.5590   12.7130 N.3    57  VAL57      -0.1245
     66  CA         0.1270   37.1720   11.3190 C.3    57  VAL57       0.1561
     67  C         -1.2020   37.8300   10.9310 C.2    57  VAL57       0.2260
     68  O         -2.2150   37.6520   11.6060 O.2    57  VAL57      -0.2867
     69  CB         0.0370   35.6070   11.1800 C.3    57  VAL57       0.0252
     70  CG1       -0.3230   35.1920    9.7600 C.3    57  VAL57       0.0019
     71  CG2        1.4050   34.9780   11.5290 C.3    57  VAL57       0.0019
     72  N         -4.9790   34.3330    5.5110 N.3    73  PHE73      -0.1227
     73  CA        -3.9210   34.9740    6.2580 C.3    73  PHE73       0.1736
     74  C         -2.7120   35.2930    5.3860 C.2    73  PHE73       0.2595
     75  O         -2.5020   34.6920    4.3460 O.2    73  PHE73      -0.2718
     76  CB        -3.3580   33.9690    7.3170 C.3    73  PHE73       0.0547
     77  CG        -4.3200   33.6290    8.4290 C.ar   73  PHE73      -0.0202
     78  CD1       -4.4070   34.4300    9.5580 C.ar   73  PHE73      -0.0042
     79  CD2       -5.0860   32.4680    8.3610 C.ar   73  PHE73      -0.0042
     80  CE1       -5.2710   34.1080   10.6030 C.ar   73  PHE73      -0.0003
     81  CE2       -5.9530   32.1230    9.4020 C.ar   73  PHE73      -0.0003
     82  CZ        -6.0480   32.9540   10.5250 C.ar   73  PHE73      -0.0000
     83  N         -1.8810   36.1970    5.8890 N.am   74  GLU74      -0.1965
     84  CA        -0.6030   36.4950    5.2760 C.3    74  GLU74       0.1733
     85  C          0.1960   35.1600    5.3620 C.2    74  GLU74       0.2616
     86  O          0.0200   34.3610    6.3160 O.2    74  GLU74      -0.2715
     87  CB         0.1160   37.6230    6.0710 C.3    74  GLU74       0.0429
     88  CG         1.5240   37.3110    6.5330 C.3    74  GLU74       0.1163
     89  CD         2.1100   38.4080    7.4540 C.2    74  GLU74       0.3649
     90  OE1        1.4040   38.8750    8.3700 O.co2  74  GLU74      -0.2457
     91  OE2        3.2710   38.8000    7.2420 O.co2  74  GLU74      -0.2457
     92  N          1.0100   34.9010    4.3540 N.am   75  PHE75      -0.1960
     93  CA         1.8220   33.6930    4.2960 C.3    75  PHE75       0.1771
     94  C          3.2330   33.9620    4.8320 C.2    75  PHE75       0.2619
     95  O          3.8170   35.0190    4.5490 O.2    75  PHE75      -0.2715
     96  CB         1.9420   33.2610    2.8500 C.3    75  PHE75       0.0574
     97  CG         2.8180   32.0790    2.6390 C.ar   75  PHE75      -0.0200
     98  CD1        2.3360   30.7940    2.8420 C.ar   75  PHE75      -0.0042
     99  CD2        4.1480   32.2370    2.2330 C.ar   75  PHE75      -0.0042
    100  CE1        3.1480   29.6750    2.6430 C.ar   75  PHE75      -0.0003
    101  CE2        4.9620   31.1410    2.0240 C.ar   75  PHE75      -0.0003
    102  CZ         4.4690   29.8350    2.2300 C.ar   75  PHE75      -0.0000
    103  N          3.7680   32.9980    5.6030 N.am   76  LEU76      -0.1963
    104  CA         5.1730   33.0880    6.1200 C.3    76  LEU76       0.1728
    105  C          5.8560   31.7920    5.6860 C.2    76  LEU76       0.2616
    106  O          5.2180   30.7550    5.6400 O.2    76  LEU76      -0.2715
    107  CB         5.2160   33.3050    7.6380 C.3    76  LEU76       0.0311
    108  CG         4.9830   34.7810    7.9380 C.3    76  LEU76       0.0022
    109  CD1        3.5430   35.0890    8.2260 C.3    76  LEU76       0.0001
    110  CD2        5.9390   35.4140    8.9540 C.3    76  LEU76       0.0001
    111  N          7.1490   31.8430    5.3680 N.am   77  HIS77      -0.1959
    112  CA         7.8060   30.6560    4.8510 C.3    77  HIS77       0.1787
    113  C          8.0650   29.4860    5.7450 C.2    77  HIS77       0.2620
    114  O          8.1860   28.3420    5.2590 O.2    77  HIS77      -0.2715
    115  CB         9.0080   30.9950    3.9880 C.3    77  HIS77       0.0785
    116  CG         8.6480   31.4460    2.6120 C.ar   77  HIS77       0.0821
    117  ND1        8.2950   32.7550    2.3190 N.ar   77  HIS77      -0.2267
    118  CD2        8.5540   30.7600    1.4500 C.ar   77  HIS77       0.1154
    119  CE1        8.0210   32.8490    1.0290 C.ar   77  HIS77       0.1986
    120  NE2        8.1860   31.6530    0.4790 N.ar   77  HIS77      -0.2212
    121  N          8.1630   29.7250    7.0580 N.am   78  GLN78      -0.1963
    122  CA         8.4290   28.6040    7.9360 C.3    78  GLN78       0.1733
    123  C          7.7860   28.7960    9.3020 C.2    78  GLN78       0.2616
    124  O          7.5270   29.9190    9.7080 O.2    78  GLN78      -0.2715
    125  CB         9.9450   28.4730    8.1150 C.3    78  GLN78       0.0408
    126  CG        10.3740   27.0960    8.5550 C.3    78  GLN78       0.0908
    127  CD        11.7660   26.7520    8.0430 C.2    78  GLN78       0.2608
    128  OE1       11.9810   26.5900    6.8270 O.2    78  GLN78      -0.2717
    129  NE2       12.7310   26.7820    8.9320 N.am   78  GLN78      -0.0878
    130  N          7.5090   27.6810    9.9880 N.am   79  ASP79      -0.1971
    131  CA         6.9560   27.7690   11.3510 C.3    79  ASP79       0.1709
    132  C          8.0800   27.4060   12.3500 C.2    79  ASP79       0.2293
    133  O          9.0870   26.7830   11.9840 O.2    79  ASP79      -0.2864
    134  CB         5.6950   26.9080   11.5450 C.3    79  ASP79       0.1436
    135  CG         5.9520   25.4340   11.3550 C.2    79  ASP79       0.3671
    136  OD1        6.4260   24.7890   12.3280 O.co2  79  ASP79      -0.2456
    137  OD2        5.6010   24.8960   10.2670 O.co2  79  ASP79      -0.2456
    138  N          9.1080   23.5320   12.6810 N.3    82  LYS82      -0.1245
    139  CA        10.0100   23.0570   11.6150 C.3    82  LYS82       0.1561
    140  C         11.4130   23.6480   11.8070 C.2    82  LYS82       0.2260
    141  O         12.4200   22.9590   11.6300 O.2    82  LYS82      -0.2867
    142  CB         9.4660   23.4350   10.2210 C.3    82  LYS82       0.0271
    143  CG         8.2120   22.6960    9.8190 C.3    82  LYS82       0.0035
    144  CD         8.1390   22.5270    8.3050 C.3    82  LYS82       0.0206
    145  CE         6.7830   21.9470    7.8710 C.3    82  LYS82       0.1093
    146  NZ         6.8460   20.4750    7.6270 N.3    82  LYS82      -0.1314
    147  N          3.9730   25.5740   16.3790 N.3   124  GLN124     -0.1231
    148  CA         3.3380   25.5830   15.0350 C.3   124  GLN124      0.1698
    149  C          2.5400   26.8500   14.7330 C.2   124  GLN124      0.2592
    150  O          2.1470   27.0760   13.5730 O.2   124  GLN124     -0.2718
    151  CB         2.4770   24.3390   14.8140 C.3   124  GLN124      0.0381
    152  CG         3.2960   23.1260   14.4390 C.3   124  GLN124      0.0905
    153  CD         2.4520   21.9200   14.0680 C.2   124  GLN124      0.2608
    154  OE1        1.2620   21.8490   14.3930 O.2   124  GLN124     -0.2717
    155  NE2        3.0760   20.9450   13.4130 N.am  124  GLN124     -0.0878
    156  N          2.2950   27.6460   15.7860 N.am  125  ASN125     -0.1974
    157  CA         1.5370   28.9070   15.7130 C.3   125  ASN125      0.1688
    158  C          2.4670   30.1040   15.7600 C.2   125  ASN125      0.2292
    159  O          2.0200   31.2380   15.9930 O.2   125  ASN125     -0.2864
    160  CB         0.5750   29.0120   16.9110 C.3   125  ASN125      0.1181
    161  CG        -0.7200   28.2880   16.6700 C.2   125  ASN125      0.2629
    162  OD1       -0.9200   27.6970   15.6090 O.2   125  ASN125     -0.2716
    163  ND2       -1.6240   28.3510   17.6380 N.am  125  ASN125     -0.0877
    164  N          5.3620   31.8610   13.4540 N.3   127  LEU127     -0.1245
    165  CA         5.8490   31.8250   12.0780 C.3   127  LEU127      0.1561
    166  C          6.9910   32.7930   11.8630 C.2   127  LEU127      0.2260
    167  O          6.9960   33.8720   12.4210 O.2   127  LEU127     -0.2867
    168  CB         4.6810   32.1510   11.1050 C.3   127  LEU127      0.0270
    169  CG         3.4230   31.2780   11.3250 C.3   127  LEU127      0.0019
    170  CD1        2.2910   31.6450   10.3280 C.3   127  LEU127      0.0001
    171  CD2        3.7890   29.8230   11.2380 C.3   127  LEU127      0.0001
    172  N          0.4740   33.4380   15.1960 N.3   137  ALA137     -0.1231
    173  CA        -0.5340   33.1130   14.2090 C.3   137  ALA137      0.1694
    174  C         -1.7120   32.3840   14.7680 C.2   137  ALA137      0.2592
    175  O         -1.6350   31.7580   15.8170 O.2   137  ALA137     -0.2718
    176  CB         0.0950   32.2620   13.1230 C.3   137  ALA137      0.0304
    177  N         -2.7840   32.4210   13.9850 N.am  138  ASP138     -0.1974
    178  CA        -4.0110   31.6850   14.2440 C.3   138  ASP138      0.1709
    179  C         -4.4780   31.6540   15.6700 C.2   138  ASP138      0.2293
    180  O         -4.4540   30.6050   16.3010 O.2   138  ASP138     -0.2864
    181  CB        -3.8350   30.2620   13.7300 C.3   138  ASP138      0.1436
    182  CG        -5.1420   29.6130   13.3640 C.2   138  ASP138      0.3671
    183  OD1       -6.1800   30.2990   13.4310 O.co2 138  ASP138     -0.2456
    184  OD2       -5.1350   28.4090   13.0510 O.co2 138  ASP138     -0.2456
@<TRIPOS>BOND
     1     1     2    1
     2    50    49    1
     3    49    48    1
     4     2     5    1
     5     2     3    1
     6     5     6    1
     7    45    44    2
     8     8     7   ar
     9    48    47    1
    10    47    46    1
    11    44    43    1
    12     6     7    1
    13     7     9   ar
    14     3     4    2
    15   120   119   ar
    16   120   118   ar
    17    46    43    1
    18    43    42    1
    19   119   117   ar
    20   118   116   ar
    21   101   102   ar
    22   101    99   ar
    23   102   100   ar
    24    99    97   ar
    25   117   116   ar
    26   116   115    1
    27    97    98   ar
    28    97    96    1
    29   100    98   ar
    30    96    93    1
    31    51    52    1
    32    16    14    1
    33    52    53    1
    34    52    55    1
    35    53    54    2
    36   115   112    1
    37    10    11    1
    38    93    92    1
    39    93    94    1
    40    75    74    2
    41    92    85   am
    42    95    94    2
    43    14    11    1
    44    14    15    1
    45    17    15    1
    46    94   103   am
    47   112   111    1
    48   112   113    1
    49    11    12    1
    50    38    37    2
    51    37    36    1
    52   114   113    2
    53    84    85    1
    54    84    83    1
    55    84    87    1
    56    85    86    2
    57   111   105   am
    58    74    83   am
    59    74    73    1
    60    72    73    1
    61   103   104    1
    62   106   105    2
    63   105   104    1
    64    56    57    1
    65   113   121   am
    66    87    88    1
    67   104   107    1
    68    73    76    1
    69    36    35    1
    70    36    39    1
    71    12    18   am
    72    12    13    2
    73    59    58    2
    74    58    57    1
    75    88    89    1
    76    40    39    1
    77    57    60    1
    78    18    19    1
    79   128   127    2
    80   121   122    1
    81    39    41    1
    82    91    89   ar
    83    76    77    1
    84    89    90   ar
    85   146   145    1
    86   107   108    1
    87    21    20    2
    88   145   144    1
    89   122   125    1
    90   122   123    1
    91   108   109    1
    92   108   110    1
    93   127   126    1
    94   127   129   am
    95   125   126    1
    96    60    61    1
    97    19    20    1
    98   144   143    1
    99    29    28   ar
   100    79    77   ar
   101    79    81   ar
   102    77    78   ar
   103    20    22   am
   104    61    62    1
   105    27    28    1
   106    27    26    1
   107   123   124    2
   108   123   130   am
   109    28    30   ar
   110    81    82   ar
   111    78    80   ar
   112    22    23    1
   113    70    69    1
   114   143   142    1
   115   130   131    1
   116    23    26    1
   117    23    24    1
   118   142   139    1
   119   137   135   ar
   120   170   169    1
   121    82    80   ar
   122    62    63    1
   123    67    66    1
   124    67    68    2
   125   168   169    1
   126   168   165    1
   127    69    66    1
   128    69    71    1
   129    31    24   am
   130    31    32    1
   131   171   169    1
   132    66    65    1
   133   131   134    1
   134   131   132    1
   135   135   134    1
   136   135   136   ar
   137    24    25    2
   138    63    64    1
   139   139   140    1
   140   139   138    1
   141   141   140    2
   142   166   165    1
   143   166   167    2
   144   133   132    2
   145   165   164    1
   146    32    33    1
   147   184   182   ar
   148   176   173    1
   149    34    33    2
   150   182   183   ar
   151   182   181    1
   152   155   153   am
   153   150   149    2
   154   181   178    1
   155   177   178    1
   156   177   174   am
   157   153   154    2
   158   153   152    1
   159   173   174    1
   160   173   172    1
   161   178   179    1
   162   152   151    1
   163   149   148    1
   164   149   156   am
   165   174   175    2
   166   151   148    1
   167   148   147    1
   168   162   161    2
   169   179   180    2
   170   157   158    1
   171   157   156    1
   172   157   160    1
   173   158   159    2
   174   161   160    1
   175   161   163   am
