@<TRIPOS>MOLECULE
tmp/2r3oA00.pdb
 185 177 0 0 0
SMALL
GASTEIGER

@<TRIPOS>ATOM
      1  N         -0.4220   23.7500   -2.6540 N.3     8  GLU8       -0.1231
      2  CA         0.0230   22.5950   -1.8910 C.3     8  GLU8        0.1699
      3  C         -0.4950   22.6800   -0.4670 C.2     8  GLU8        0.2592
      4  O         -0.8490   23.7660    0.0180 O.2     8  GLU8       -0.2718
      5  CB         1.5560   22.5180   -1.8770 C.3     8  GLU8        0.0402
      6  CG         2.2190   23.5790   -1.0060 C.3     8  GLU8        0.1161
      7  CD         3.6860   23.2950   -0.7380 C.2     8  GLU8        0.3649
      8  OE1        4.5040   23.5030   -1.6510 O.co2   8  GLU8       -0.2457
      9  OE2        4.0240   22.8950    0.3970 O.co2   8  GLU8       -0.2457
     10  N         -0.5560   21.5320    0.2010 N.am    9  LYS9       -0.1966
     11  CA        -0.9910   21.4940    1.5810 C.3     9  LYS9        0.1728
     12  C          0.2250   21.8480    2.4190 C.2     9  LYS9        0.2616
     13  O          1.3070   21.2760    2.2250 O.2     9  LYS9       -0.2715
     14  CB        -1.4950   20.0960    1.9520 C.3     9  LYS9        0.0311
     15  CG        -1.7180   19.9010    3.4470 C.3     9  LYS9        0.0038
     16  CD        -2.2580   18.5080    3.7550 C.3     9  LYS9        0.0206
     17  CE        -3.7420   18.4090    3.4510 C.3     9  LYS9        0.1093
     18  NZ        -4.3300   17.1180    3.9200 N.3     9  LYS9       -0.1314
     19  N          0.0810   22.8350    3.2970 N.am   10  ILE10      -0.1963
     20  CA         1.2060   23.2530    4.1310 C.3    10  ILE10       0.1727
     21  C          1.0810   22.8330    5.5810 C.2    10  ILE10       0.2617
     22  O          1.9720   23.0950    6.3830 O.2    10  ILE10      -0.2715
     23  CB         1.5350   24.7680    4.0140 C.3    10  ILE10       0.0290
     24  CG1        0.3890   25.6300    4.5450 C.3    10  ILE10       0.0022
     25  CG2        1.9030   25.1190    2.6010 C.3    10  ILE10       0.0023
     26  CD1        0.6710   27.1260    4.4680 C.3    10  ILE10       0.0001
     27  N         -0.0080   22.1410    5.9100 N.am   11  GLY11      -0.1940
     28  CA        -0.2110   21.6540    7.2680 C.3    11  GLY11       0.2014
     29  C         -1.6730   21.3840    7.6010 C.2    11  GLY11       0.2639
     30  O         -2.5750   21.7710    6.8600 O.2    11  GLY11      -0.2714
     31  N         -1.8980   20.6910    8.7160 N.am   12  GLU12      -0.1963
     32  CA        -3.2550   20.4030    9.1790 C.3    12  GLU12       0.1733
     33  C         -3.4400   21.1380   10.4740 C.2    12  GLU12       0.2616
     34  O         -2.7220   20.8980   11.4430 O.2    12  GLU12      -0.2715
     35  CB        -3.4660   18.8970    9.3950 C.3    12  GLU12       0.0429
     36  CG        -2.3510   18.0360    8.8470 C.3    12  GLU12       0.1163
     37  CD        -2.7490   16.5840    8.7030 C.2    12  GLU12       0.3649
     38  OE1       -1.9080   15.7810    8.2520 O.co2  12  GLU12      -0.2457
     39  OE2       -3.8950   16.2430    9.0520 O.co2  12  GLU12      -0.2457
     40  N         -4.3620   22.0850   10.4770 N.am   13  GLY13      -0.1955
     41  CA        -4.5940   22.8880   11.6550 C.3    13  GLY13       0.1869
     42  C         -5.5670   22.2020   12.5990 C.2    13  GLY13       0.2309
     43  O         -6.0960   21.1270   12.3020 O.2    13  GLY13      -0.2863
     44  N         -4.6660   23.4850    5.9890 N.3    18  VAL18      -0.1245
     45  CA        -4.1700   24.7920    5.5740 C.3    18  VAL18       0.1561
     46  C         -3.4370   24.6120    4.2790 C.2    18  VAL18       0.2260
     47  O         -2.6070   23.7060    4.1450 O.2    18  VAL18      -0.2867
     48  CB        -3.2250   25.4120    6.5960 C.3    18  VAL18       0.0252
     49  CG1       -2.7150   26.7900    6.0800 C.3    18  VAL18       0.0019
     50  CG2       -3.9190   25.5600    7.9320 C.3    18  VAL18       0.0019
     51  N         -1.3100   26.3580    0.8700 N.3    20  LYS20      -0.1245
     52  CA        -0.6310   27.4560    0.2230 C.3    20  LYS20       0.1561
     53  C         -1.4580   27.6460   -1.0650 C.2    20  LYS20       0.2260
     54  O         -1.8080   26.6750   -1.7200 O.2    20  LYS20      -0.2867
     55  CB         0.7950   27.0740   -0.1520 C.3    20  LYS20       0.0271
     56  CG         1.5260   28.1940   -0.8990 C.3    20  LYS20       0.0035
     57  CD         3.0080   27.8310   -1.1000 C.3    20  LYS20       0.0206
     58  CE         3.8220   29.0070   -1.6520 C.3    20  LYS20       0.1093
     59  NZ         5.2290   28.5590   -1.9220 N.3    20  LYS20      -0.1314
     60  N         -1.9930   31.8040    2.5390 N.3    31  ALA31      -0.1245
     61  CA        -2.2850   30.5470    3.2330 C.3    31  ALA31       0.1562
     62  C         -3.8040   30.5420    3.4000 C.2    31  ALA31       0.2260
     63  O         -4.3920   31.5190    3.8560 O.2    31  ALA31      -0.2867
     64  CB        -1.5870   30.4990    4.6090 C.3    31  ALA31       0.0290
     65  N         -7.0670   28.7300    4.9810 N.3    33  LYS33      -0.1245
     66  CA        -7.5310   27.7920    5.9960 C.3    33  LYS33       0.1561
     67  C         -8.9990   27.4860    5.8210 C.2    33  LYS33       0.2260
     68  O         -9.8320   28.3690    5.8890 O.2    33  LYS33      -0.2867
     69  CB        -7.2650   28.3490    7.3980 C.3    33  LYS33       0.0271
     70  CG        -5.7930   28.6460    7.6620 C.3    33  LYS33       0.0035
     71  CD        -5.4250   28.3400    9.1340 C.3    33  LYS33       0.0206
     72  CE        -3.9490   28.5000    9.3830 C.3    33  LYS33       0.1093
     73  NZ        -3.5620   28.1410   10.7810 N.3    33  LYS33      -0.1314
     74  N          0.4690   36.9820   12.3250 N.3    57  VAL57      -0.1245
     75  CA         0.1870   36.5670   10.9520 C.3    57  VAL57       0.1561
     76  C         -1.0900   37.2440   10.4740 C.2    57  VAL57       0.2260
     77  O         -2.1740   37.0850   11.0830 O.2    57  VAL57      -0.2867
     78  CB        -0.0050   35.0350   10.8640 C.3    57  VAL57       0.0252
     79  CG1       -0.4360   34.6410    9.4610 C.3    57  VAL57       0.0019
     80  CG2        1.3060   34.3250   11.2140 C.3    57  VAL57       0.0019
     81  N         -4.9020   34.0890    4.9590 N.3    73  PHE73      -0.1227
     82  CA        -3.8260   34.6690    5.7620 C.3    73  PHE73       0.1736
     83  C         -2.6030   34.9710    4.9240 C.2    73  PHE73       0.2595
     84  O         -2.3780   34.3510    3.9090 O.2    73  PHE73      -0.2718
     85  CB        -3.3790   33.6490    6.8350 C.3    73  PHE73       0.0547
     86  CG        -4.3470   33.4950    7.9600 C.ar   73  PHE73      -0.0202
     87  CD1       -4.4030   34.4370    8.9650 C.ar   73  PHE73      -0.0042
     88  CD2       -5.1340   32.3600    8.0630 C.ar   73  PHE73      -0.0042
     89  CE1       -5.2680   34.2800   10.0310 C.ar   73  PHE73      -0.0003
     90  CE2       -6.0220   32.2050    9.1260 C.ar   73  PHE73      -0.0003
     91  CZ        -6.1050   33.1710   10.0910 C.ar   73  PHE73      -0.0000
     92  N         -1.7410   35.8150    5.4550 N.am   74  GLU74      -0.1965
     93  CA        -0.4460   36.0470    4.8400 C.3    74  GLU74       0.1733
     94  C          0.3140   34.7130    4.8760 C.2    74  GLU74       0.2616
     95  O          0.0860   33.9020    5.7520 O.2    74  GLU74      -0.2715
     96  CB         0.3020   37.1210    5.6360 C.3    74  GLU74       0.0429
     97  CG         1.5130   36.6510    6.3500 C.3    74  GLU74       0.1163
     98  CD         2.1850   37.7670    7.1560 C.2    74  GLU74       0.3649
     99  OE1        1.5700   38.2930    8.0980 O.co2  74  GLU74      -0.2457
    100  OE2        3.3240   38.1200    6.8330 O.co2  74  GLU74      -0.2457
    101  N          1.1550   34.4620    3.8820 N.am   75  PHE75      -0.1960
    102  CA         1.9340   33.2170    3.8220 C.3    75  PHE75       0.1771
    103  C          3.3370   33.4140    4.3960 C.2    75  PHE75       0.2619
    104  O          3.9900   34.4000    4.0870 O.2    75  PHE75      -0.2715
    105  CB         2.0710   32.7560    2.3750 C.3    75  PHE75       0.0574
    106  CG         2.9270   31.5260    2.1990 C.ar   75  PHE75      -0.0200
    107  CD1        2.4310   30.2610    2.5270 C.ar   75  PHE75      -0.0042
    108  CD2        4.2260   31.6280    1.6910 C.ar   75  PHE75      -0.0042
    109  CE1        3.2240   29.1280    2.3880 C.ar   75  PHE75      -0.0003
    110  CE2        5.0120   30.4900    1.5250 C.ar   75  PHE75      -0.0003
    111  CZ         4.4980   29.2340    1.8680 C.ar   75  PHE75      -0.0000
    112  N          3.8140   32.4540    5.1910 N.am   76  LEU76      -0.1963
    113  CA         5.2020   32.4940    5.7020 C.3    76  LEU76       0.1728
    114  C          5.8480   31.1710    5.3140 C.2    76  LEU76       0.2616
    115  O          5.1750   30.1700    5.2460 O.2    76  LEU76      -0.2715
    116  CB         5.2260   32.6970    7.2340 C.3    76  LEU76       0.0311
    117  CG         4.9510   34.1590    7.5760 C.3    76  LEU76       0.0022
    118  CD1        3.5540   34.3640    8.0930 C.3    76  LEU76       0.0001
    119  CD2        6.0010   34.7200    8.4990 C.3    76  LEU76       0.0001
    120  N          7.1440   31.1750    5.0250 N.am   77  HIS77      -0.1959
    121  CA         7.8120   29.9490    4.5290 C.3    77  HIS77       0.1787
    122  C          8.1200   28.7590    5.4550 C.2    77  HIS77       0.2620
    123  O          8.3160   27.6350    4.9720 O.2    77  HIS77      -0.2715
    124  CB         9.0030   30.2830    3.5940 C.3    77  HIS77       0.0785
    125  CG         8.5940   30.8740    2.2720 C.ar   77  HIS77       0.0821
    126  ND1        8.2340   32.2020    2.1230 N.ar   77  HIS77      -0.2267
    127  CD2        8.5160   30.3240    1.0370 C.ar   77  HIS77       0.1154
    128  CE1        7.9400   32.4370    0.8570 C.ar   77  HIS77       0.1986
    129  NE2        8.1250   31.3210    0.1730 N.ar   77  HIS77      -0.2212
    130  N          8.1370   28.9630    6.7710 N.am   78  GLN78      -0.1963
    131  CA         8.3980   27.8270    7.6780 C.3    78  GLN78       0.1733
    132  C          7.7820   28.0610    9.0250 C.2    78  GLN78       0.2616
    133  O          7.5240   29.2080    9.3970 O.2    78  GLN78      -0.2715
    134  CB         9.9100   27.6070    7.8590 C.3    78  GLN78       0.0408
    135  CG        10.2270   26.2770    8.5820 C.3    78  GLN78       0.0908
    136  CD        11.6110   25.7600    8.2960 C.2    78  GLN78       0.2608
    137  OE1       11.7750   24.6900    7.7040 O.2    78  GLN78      -0.2717
    138  NE2       12.6220   26.4840    8.7630 N.am   78  GLN78      -0.0878
    139  N          7.5470   26.9780    9.7730 N.am   79  ASP79      -0.1971
    140  CA         7.0470   27.1200   11.1380 C.3    79  ASP79       0.1709
    141  C          8.1570   26.7790   12.1220 C.2    79  ASP79       0.2293
    142  O          9.1760   26.1820   11.7390 O.2    79  ASP79      -0.2864
    143  CB         5.7740   26.3070   11.3920 C.3    79  ASP79       0.1436
    144  CG         6.0000   24.8110   11.3190 C.2    79  ASP79       0.3671
    145  OD1        6.6140   24.2520   12.2580 O.co2  79  ASP79      -0.2456
    146  OD2        5.4910   24.1840   10.3660 O.co2  79  ASP79      -0.2456
    147  N          9.1050   22.9820   12.6470 N.3    82  LYS82      -0.1245
    148  CA         9.9870   22.5260   11.5770 C.3    82  LYS82       0.1561
    149  C         11.4130   23.0640   11.7480 C.2    82  LYS82       0.2260
    150  O         12.3810   22.3120   11.6500 O.2    82  LYS82      -0.2867
    151  CB         9.4130   22.9070   10.1950 C.3    82  LYS82       0.0271
    152  CG         8.9340   21.7230    9.3810 C.3    82  LYS82       0.0035
    153  CD         8.1250   22.1640    8.1610 C.3    82  LYS82       0.0206
    154  CE         7.0470   21.1340    7.8090 C.3    82  LYS82       0.1093
    155  NZ         6.6800   21.1630    6.3570 N.3    82  LYS82      -0.1314
    156  N          4.0990   24.9720   16.3810 N.3   124  GLN124     -0.1245
    157  CA         3.4720   24.8570   15.0730 C.3   124  GLN124      0.1566
    158  C          2.7300   26.1220   14.6590 C.2   124  GLN124      0.2260
    159  O          2.5100   26.3510   13.4610 O.2   124  GLN124     -0.2867
    160  CB         2.5660   23.6220   15.0010 C.3   124  GLN124      0.0367
    161  CG         2.0050   23.3400   13.6200 C.3   124  GLN124      0.0905
    162  CD         1.1100   22.1000   13.5910 C.2   124  GLN124      0.2608
    163  OE1        0.0360   22.0760   14.2020 O.2   124  GLN124     -0.2717
    164  NE2        1.5620   21.0600   12.8910 N.am  124  GLN124     -0.0878
    165  N          5.3990   31.1300   13.0810 N.3   127  LEU127     -0.1245
    166  CA         5.9080   31.1090   11.7200 C.3   127  LEU127      0.1561
    167  C          7.0030   32.1190   11.4900 C.2   127  LEU127      0.2260
    168  O          6.9260   33.2470   11.9580 O.2   127  LEU127     -0.2867
    169  CB         4.7480   31.3650   10.7640 C.3   127  LEU127      0.0270
    170  CG         3.5300   30.4740   11.0290 C.3   127  LEU127      0.0019
    171  CD1        2.4350   30.9010   10.0560 C.3   127  LEU127      0.0001
    172  CD2        3.9140   29.0180   10.7940 C.3   127  LEU127      0.0001
    173  N          0.4930   32.7010   14.7460 N.3   137  ALA137     -0.1231
    174  CA        -0.6000   32.2910   13.8760 C.3   137  ALA137      0.1694
    175  C         -1.7900   31.7620   14.7040 C.2   137  ALA137      0.2592
    176  O         -1.6180   31.2750   15.8110 O.2   137  ALA137     -0.2718
    177  CB        -0.1220   31.2350   12.9010 C.3   137  ALA137      0.0304
    178  N         -2.9900   31.9130   14.1670 N.am  138  ASP138     -0.1974
    179  CA        -4.2290   31.5020   14.8650 C.3   138  ASP138      0.1709
    180  C         -4.6240   32.3150   16.0810 C.2   138  ASP138      0.2293
    181  O         -5.4300   31.8730   16.8870 O.2   138  ASP138     -0.2864
    182  CB        -4.2360   30.0070   15.1740 C.3   138  ASP138      0.1436
    183  CG        -4.2430   29.1660   13.9170 C.2   138  ASP138      0.3671
    184  OD1       -4.2550   29.7610   12.8160 O.co2 138  ASP138     -0.2456
    185  OD2       -4.2940   27.9260   14.0180 O.co2 138  ASP138     -0.2456
@<TRIPOS>BOND
     1     1     2    1
     2    59    58    1
     3     2     5    1
     4     2     3    1
     5     5     6    1
     6    54    53    2
     7    58    57    1
     8     8     7   ar
     9    57    56    1
    10    53    52    1
    11     6     7    1
    12    56    55    1
    13     7     9   ar
    14     3     4    2
    15     3    10   am
    16    55    52    1
    17   129   128   ar
    18   129   127   ar
    19    10    11    1
    20    52    51    1
    21   128   126   ar
    22   127   125   ar
    23   110   108   ar
    24   110   111   ar
    25    11    14    1
    26    11    12    1
    27   108   106   ar
    28   111   109   ar
    29    14    15    1
    30   126   125   ar
    31   106   105    1
    32   106   107   ar
    33    13    12    2
    34   125   124    1
    35   105   102    1
    36   109   107   ar
    37    12    19   am
    38    60    61    1
    39    25    23    1
    40    61    62    1
    41    61    64    1
    42    19    20    1
    43    62    63    2
    44    15    16    1
    45    17    16    1
    46    17    18    1
    47   124   121    1
    48   102   101    1
    49   102   103    1
    50   101    94   am
    51    84    83    2
    52    23    20    1
    53    23    24    1
    54   104   103    2
    55    20    21    1
    56    47    46    2
    57    46    45    1
    58   103   112   am
    59    26    24    1
    60   121   120    1
    61   121   122    1
    62    93    94    1
    63    93    92    1
    64    93    96    1
    65    94    95    2
    66    83    92   am
    67    83    82    1
    68    81    82    1
    69   123   122    2
    70    65    66    1
    71   120   114   am
    72   112   113    1
    73   115   114    2
    74   114   113    1
    75   122   130   am
    76    45    44    1
    77    45    48    1
    78    21    27   am
    79    21    22    2
    80    96    97    1
    81   113   116    1
    82    82    85    1
    83    67    68    2
    84    67    66    1
    85    27    28    1
    86    66    69    1
    87    49    48    1
    88    97    98    1
    89   155   154    1
    90    48    50    1
    91   130   131    1
    92   100    98   ar
    93    85    86    1
    94    30    29    2
    95    98    99   ar
    96   116   117    1
    97    28    29    1
    98    69    70    1
    99   117   118    1
   100   117   119    1
   101    29    31   am
   102    70    71    1
   103   131   134    1
   104   131   132    1
   105   137   136    2
   106   154   153    1
   107   134   135    1
   108    86    88   ar
   109    86    87   ar
   110    88    90   ar
   111   153   152    1
   112    38    37   ar
   113   136   135    1
   114   136   138   am
   115    37    36    1
   116    37    39   ar
   117    31    32    1
   118    36    35    1
   119    87    89   ar
   120   132   133    2
   121   132   139   am
   122    90    91   ar
   123    71    72    1
   124    32    35    1
   125    32    33    1
   126   152   151    1
   127    72    73    1
   128    79    78    1
   129   139   140    1
   130    89    91   ar
   131   171   170    1
   132   151   148    1
   133   146   144   ar
   134    76    75    1
   135    76    77    2
   136    33    40   am
   137    33    34    2
   138    40    41    1
   139   169   170    1
   140   169   166    1
   141   172   170    1
   142    78    75    1
   143    78    80    1
   144    75    74    1
   145   140   143    1
   146   140   141    1
   147   144   143    1
   148   144   145   ar
   149   167   166    1
   150   167   168    2
   151   148   149    1
   152   148   147    1
   153   150   149    2
   154    41    42    1
   155   166   165    1
   156   142   141    2
   157    43    42    2
   158   184   183   ar
   159   164   162   am
   160   177   174    1
   161   159   158    2
   162   162   161    1
   163   162   163    2
   164   161   160    1
   165   174   175    1
   166   174   173    1
   167   183   185   ar
   168   183   182    1
   169   178   175   am
   170   178   179    1
   171   158   157    1
   172   175   176    2
   173   179   182    1
   174   179   180    1
   175   160   157    1
   176   157   156    1
   177   180   181    2
