@<TRIPOS>MOLECULE
tmp/2r3pA00.pdb
 173 166 0 0 0
SMALL
GASTEIGER

@<TRIPOS>ATOM
      1  N         -0.5300   23.0790    3.0340 N.3    10  ILE10      -0.1231
      2  CA         0.6360   23.2670    3.8850 C.3    10  ILE10       0.1692
      3  C          0.4810   22.6560    5.2550 C.2    10  ILE10       0.2593
      4  O          1.4210   22.6390    6.0400 O.2    10  ILE10      -0.2718
      5  CB         1.1120   24.7400    3.9470 C.3    10  ILE10       0.0266
      6  CG1       -0.0180   25.6610    4.4020 C.3    10  ILE10       0.0019
      7  CG2        1.6690   25.1770    2.6110 C.3    10  ILE10       0.0020
      8  CD1        0.4520   27.0550    4.7690 C.3    10  ILE10       0.0001
      9  N         -0.6980   22.1350    5.5440 N.am   11  GLY11      -0.1942
     10  CA        -0.9140   21.5090    6.8300 C.3    11  GLY11       0.2014
     11  C         -2.3730   21.3610    7.1800 C.2    11  GLY11       0.2639
     12  O         -3.2570   21.8290    6.4630 O.2    11  GLY11      -0.2714
     13  N         -2.6170   20.6890    8.2910 N.am   12  GLU12      -0.1963
     14  CA        -3.9570   20.4860    8.7890 C.3    12  GLU12       0.1733
     15  C         -4.0010   21.1450   10.1460 C.2    12  GLU12       0.2617
     16  O         -3.3730   20.6760   11.0960 O.2    12  GLU12      -0.2715
     17  CB        -4.2640   18.9890    8.9030 C.3    12  GLU12       0.0429
     18  CG        -4.2000   18.2510    7.5670 C.3    12  GLU12       0.1163
     19  CD        -4.3380   16.7480    7.7160 C.2    12  GLU12       0.3649
     20  OE1       -5.0890   16.1400    6.9220 O.co2  12  GLU12      -0.2457
     21  OE2       -3.6820   16.1730    8.6130 O.co2  12  GLU12      -0.2457
     22  N         -4.6840   22.2790   10.2200 N.am   13  GLY13      -0.1940
     23  CA        -4.7770   23.0270   11.4620 C.3    13  GLY13       0.2014
     24  C         -5.8260   22.4240   12.3840 C.2    13  GLY13       0.2639
     25  O         -6.3880   21.3690   12.1000 O.2    13  GLY13      -0.2714
     26  N         -6.0800   23.1040   13.4890 N.am   14  THR14      -0.1950
     27  CA        -7.0680   22.6560   14.4580 C.3    14  THR14       0.1897
     28  C         -8.4550   22.6510   13.8380 C.2    14  THR14       0.2313
     29  O         -9.2180   21.6910   13.9860 O.2    14  THR14      -0.2863
     30  CB        -7.0520   23.5580   15.7120 C.3    14  THR14       0.1794
     31  OG1       -5.7180   24.0210   15.9570 O.3    14  THR14      -0.2208
     32  CG2       -7.5570   22.8000   16.9280 C.3    14  THR14       0.0378
     33  N         -5.0430   23.9450    5.8420 N.3    18  VAL18      -0.1245
     34  CA        -4.3900   25.2220    5.5680 C.3    18  VAL18       0.1561
     35  C         -3.7200   25.0730    4.2180 C.2    18  VAL18       0.2260
     36  O         -3.0220   24.0840    3.9650 O.2    18  VAL18      -0.2867
     37  CB        -3.3440   25.5790    6.6540 C.3    18  VAL18       0.0252
     38  CG1       -2.7990   26.9910    6.4190 C.3    18  VAL18       0.0019
     39  CG2       -3.9530   25.4580    8.0460 C.3    18  VAL18       0.0019
     40  N         -2.0900   32.5390    2.7110 N.3    31  ALA31      -0.1245
     41  CA        -2.3960   31.2980    3.4220 C.3    31  ALA31       0.1562
     42  C         -3.9270   31.2900    3.5460 C.2    31  ALA31       0.2260
     43  O         -4.5210   32.2670    3.9830 O.2    31  ALA31      -0.2867
     44  CB        -1.7460   31.2930    4.8240 C.3    31  ALA31       0.0290
     45  N         -7.1290   29.4800    5.2200 N.3    33  LYS33      -0.1245
     46  CA        -7.5590   28.5280    6.2400 C.3    33  LYS33       0.1561
     47  C         -9.0480   28.2200    6.1260 C.2    33  LYS33       0.2260
     48  O         -9.8810   29.1170    6.2070 O.2    33  LYS33      -0.2867
     49  CB        -7.2410   29.0320    7.6520 C.3    33  LYS33       0.0271
     50  CG        -7.8740   28.1780    8.7540 C.3    33  LYS33       0.0035
     51  CD        -7.4310   28.6100   10.1480 C.3    33  LYS33       0.0206
     52  CE        -6.5140   27.5680   10.7890 C.3    33  LYS33       0.1093
     53  NZ        -7.2470   26.3690   11.3090 N.3    33  LYS33      -0.1314
     54  N          0.4920   37.6430   12.4980 N.3    57  VAL57      -0.1245
     55  CA         0.2070   37.3190   11.0950 C.3    57  VAL57       0.1561
     56  C         -1.0640   38.0510   10.6750 C.2    57  VAL57       0.2260
     57  O         -2.1140   37.9110   11.3100 O.2    57  VAL57      -0.2867
     58  CB         0.0810   35.7920   10.8750 C.3    57  VAL57       0.0252
     59  CG1       -0.3230   35.4940    9.4290 C.3    57  VAL57       0.0019
     60  CG2        1.3940   35.1070   11.1940 C.3    57  VAL57       0.0019
     61  N         -4.9650   34.8690    5.0780 N.3    73  PHE73      -0.1227
     62  CA        -3.9060   35.4680    5.8790 C.3    73  PHE73       0.1736
     63  C         -2.6670   35.7640    5.0620 C.2    73  PHE73       0.2595
     64  O         -2.4540   35.1950    3.9960 O.2    73  PHE73      -0.2718
     65  CB        -3.4540   34.4640    6.9630 C.3    73  PHE73       0.0547
     66  CG        -4.4200   34.2850    8.0860 C.ar   73  PHE73      -0.0202
     67  CD1       -4.3870   35.1320    9.1820 C.ar   73  PHE73      -0.0042
     68  CD2       -5.2640   33.1960    8.1150 C.ar   73  PHE73      -0.0042
     69  CE1       -5.2300   34.9230   10.2610 C.ar   73  PHE73      -0.0003
     70  CE2       -6.1240   32.9900    9.1920 C.ar   73  PHE73      -0.0003
     71  CZ        -6.1040   33.8610   10.2580 C.ar   73  PHE73      -0.0000
     72  N         -1.7990   36.5800    5.6390 N.am   74  GLU74      -0.1965
     73  CA        -0.4870   36.8430    5.0740 C.3    74  GLU74       0.1733
     74  C          0.2490   35.4920    5.1320 C.2    74  GLU74       0.2616
     75  O          0.0610   34.7280    6.0750 O.2    74  GLU74      -0.2715
     76  CB         0.2390   37.8640    5.9640 C.3    74  GLU74       0.0429
     77  CG         1.7270   37.6460    6.1190 C.3    74  GLU74       0.1163
     78  CD         2.3550   38.6000    7.1410 C.2    74  GLU74       0.3649
     79  OE1        1.6830   38.9680    8.1320 O.co2  74  GLU74      -0.2457
     80  OE2        3.5220   38.9740    6.9540 O.co2  74  GLU74      -0.2457
     81  N          1.0620   35.1980    4.1230 N.am   75  PHE75      -0.1960
     82  CA         1.7970   33.9320    4.0740 C.3    75  PHE75       0.1771
     83  C          3.2360   34.0550    4.5990 C.2    75  PHE75       0.2619
     84  O          3.9620   34.9780    4.2280 O.2    75  PHE75      -0.2715
     85  CB         1.8340   33.3990    2.6330 C.3    75  PHE75       0.0574
     86  CG         2.6090   32.1250    2.4750 C.ar   75  PHE75      -0.0200
     87  CD1        2.0190   30.9030    2.7590 C.ar   75  PHE75      -0.0042
     88  CD2        3.9320   32.1450    2.0370 C.ar   75  PHE75      -0.0042
     89  CE1        2.7220   29.7260    2.6230 C.ar   75  PHE75      -0.0003
     90  CE2        4.6510   30.9620    1.8990 C.ar   75  PHE75      -0.0003
     91  CZ         4.0490   29.7500    2.1880 C.ar   75  PHE75      -0.0000
     92  N          3.6440   33.1050    5.4440 N.am   76  LEU76      -0.1963
     93  CA         5.0300   33.0450    5.9330 C.3    76  LEU76       0.1728
     94  C          5.5700   31.6780    5.5860 C.2    76  LEU76       0.2616
     95  O          4.8620   30.6860    5.6940 O.2    76  LEU76      -0.2715
     96  CB         5.1310   33.3030    7.4330 C.3    76  LEU76       0.0311
     97  CG         5.0910   34.7850    7.7370 C.3    76  LEU76       0.0022
     98  CD1        3.6450   35.1780    8.0220 C.3    76  LEU76       0.0001
     99  CD2        6.0170   35.1300    8.8850 C.3    76  LEU76       0.0001
    100  N          6.8320   31.6360    5.1610 N.am   77  HIS77      -0.1959
    101  CA         7.4440   30.4180    4.6540 C.3    77  HIS77       0.1787
    102  C          7.8010   29.3050    5.6120 C.2    77  HIS77       0.2620
    103  O          7.9390   28.1620    5.1920 O.2    77  HIS77      -0.2715
    104  CB         8.6590   30.7520    3.7840 C.3    77  HIS77       0.0785
    105  CG         8.3140   31.3700    2.4650 C.ar   77  HIS77       0.0821
    106  ND1        8.0940   32.7240    2.3080 N.ar   77  HIS77      -0.2267
    107  CD2        8.1870   30.8220    1.2340 C.ar   77  HIS77       0.1154
    108  CE1        7.8370   32.9800    1.0360 C.ar   77  HIS77       0.1986
    109  NE2        7.8920   31.8440    0.3620 N.ar   77  HIS77      -0.2212
    110  N          7.9960   29.6180    6.8840 N.am   78  GLN78      -0.1963
    111  CA         8.4040   28.5790    7.8240 C.3    78  GLN78       0.1733
    112  C          7.8860   28.8560    9.2210 C.2    78  GLN78       0.2616
    113  O          7.6040   29.9920    9.5680 O.2    78  GLN78      -0.2715
    114  CB         9.9320   28.4880    7.8560 C.3    78  GLN78       0.0408
    115  CG        10.4580   27.2180    8.5120 C.3    78  GLN78       0.0908
    116  CD        11.8240   26.8250    7.9900 C.2    78  GLN78       0.2608
    117  OE1       12.0040   26.6020    6.7880 O.2    78  GLN78      -0.2717
    118  NE2       12.8030   26.7610    8.8840 N.am   78  GLN78      -0.0878
    119  N          7.7740   27.8070   10.0220 N.am   79  ASP79      -0.1971
    120  CA         7.3450   27.9470   11.4060 C.3    79  ASP79       0.1709
    121  C          8.4990   27.5960   12.3520 C.2    79  ASP79       0.2293
    122  O          9.5280   27.0540   11.9250 O.2    79  ASP79      -0.2864
    123  CB         6.1080   27.1070   11.6990 C.3    79  ASP79       0.1436
    124  CG         6.3560   25.6220   11.5330 C.2    79  ASP79       0.3671
    125  OD1        7.2320   25.0740   12.2370 O.co2  79  ASP79      -0.2456
    126  OD2        5.6750   25.0070   10.6950 O.co2  79  ASP79      -0.2456
    127  N          2.1150   27.8240   20.3670 N.3   122  LYS122     -0.1245
    128  CA         2.9580   26.6410   20.2130 C.3   122  LYS122      0.1561
    129  C          3.8620   26.8670   19.0120 C.2   122  LYS122      0.2260
    130  O          3.5260   27.6460   18.1230 O.2   122  LYS122     -0.2867
    131  CB         2.1290   25.3760   20.0230 C.3   122  LYS122      0.0271
    132  CG         1.2370   25.3800   18.7960 C.3   122  LYS122      0.0035
    133  CD         0.1650   24.3140   18.9170 C.3   122  LYS122      0.0206
    134  CE        -0.9800   24.5660   17.9630 C.3   122  LYS122      0.1093
    135  NZ        -2.1590   23.7160   18.3000 N.3   122  LYS122     -0.1314
    136  N          4.3840   25.4860   16.3380 N.3   124  GLN124     -0.1231
    137  CA         3.6980   25.3250   15.0540 C.3   124  GLN124      0.1698
    138  C          3.0030   26.6080   14.5630 C.2   124  GLN124      0.2592
    139  O          2.8570   26.8230   13.3480 O.2   124  GLN124     -0.2718
    140  CB         2.7030   24.1620   15.1130 C.3   124  GLN124      0.0381
    141  CG         2.1860   23.7060   13.7710 C.3   124  GLN124      0.0905
    142  CD         1.1560   22.5870   13.8960 C.2   124  GLN124      0.2608
    143  OE1        0.7750   22.1970   15.0020 O.2   124  GLN124     -0.2717
    144  NE2        0.7070   22.0670   12.7620 N.am  124  GLN124     -0.0878
    145  N          2.5670   27.4540   15.4890 N.am  125  ASN125     -0.1974
    146  CA         1.9030   28.6910   15.0720 C.3   125  ASN125      0.1688
    147  C          2.7070   29.9660   15.2660 C.2   125  ASN125      0.2292
    148  O          2.1590   31.0710   15.2730 O.2   125  ASN125     -0.2864
    149  CB         0.4580   28.7960   15.5740 C.3   125  ASN125      0.1181
    150  CG         0.3520   28.6890   17.0400 C.2   125  ASN125      0.2629
    151  OD1        1.2330   29.1460   17.7680 O.2   125  ASN125     -0.2716
    152  ND2       -0.7680   28.1280   17.5140 N.am  125  ASN125     -0.0877
    153  N          5.4490   31.8420   13.2840 N.3   127  LEU127     -0.1245
    154  CA         5.9830   31.8420   11.9250 C.3   127  LEU127      0.1561
    155  C          7.0980   32.8320   11.6980 C.2   127  LEU127      0.2260
    156  O          7.0720   33.9360   12.2240 O.2   127  LEU127     -0.2867
    157  CB         4.8480   32.0540   10.9170 C.3   127  LEU127      0.0270
    158  CG         3.5740   31.2370   11.1990 C.3   127  LEU127      0.0019
    159  CD1        2.4670   31.6070   10.2120 C.3   127  LEU127      0.0001
    160  CD2        3.8890   29.7330   11.1220 C.3   127  LEU127      0.0001
    161  N          0.6270   33.3310   14.8140 N.3   137  ALA137     -0.1231
    162  CA        -0.4580   32.9700   13.8960 C.3   137  ALA137      0.1694
    163  C         -1.6730   32.4510   14.6490 C.2   137  ALA137      0.2592
    164  O         -1.5580   31.9030   15.7500 O.2   137  ALA137     -0.2718
    165  CB         0.0020   31.9440   12.8870 C.3   137  ALA137      0.0304
    166  N         -2.8380   32.5900   14.0280 N.am  138  ASP138     -0.1974
    167  CA        -4.0850   32.1040   14.6140 C.3   138  ASP138      0.1709
    168  C         -4.4780   32.8080   15.9010 C.2   138  ASP138      0.2293
    169  O         -5.1700   32.2420   16.7390 O.2   138  ASP138     -0.2864
    170  CB        -4.0240   30.5950   14.8100 C.3   138  ASP138      0.1436
    171  CG        -3.9030   29.8540   13.4970 C.2   138  ASP138      0.3671
    172  OD1       -3.8910   30.5330   12.4440 O.co2 138  ASP138     -0.2456
    173  OD2       -3.8170   28.6050   13.5090 O.co2 138  ASP138     -0.2456
@<TRIPOS>BOND
     1   109   108   ar
     2   109   107   ar
     3   108   106   ar
     4   107   105   ar
     5    90    88   ar
     6    90    91   ar
     7    88    86   ar
     8    91    89   ar
     9   106   105   ar
    10   105   104    1
    11    86    85    1
    12    86    87   ar
    13     7     5    1
    14    89    87   ar
    15    85    82    1
    16    40    41    1
    17     1     2    1
    18    41    42    1
    19    41    44    1
    20    42    43    2
    21   104   101    1
    22     2     5    1
    23     2     3    1
    24     5     6    1
    25    36    35    2
    26    64    63    2
    27    82    81    1
    28    82    83    1
    29    81    74   am
    30    35    34    1
    31    84    83    2
    32     6     8    1
    33    83    92   am
    34   101   100    1
    35   101   102    1
    36    63    72   am
    37    63    62    1
    38    73    74    1
    39    73    72    1
    40    73    76    1
    41    61    62    1
    42    74    75    2
    43   100    94   am
    44   103   102    2
    45    45    46    1
    46     3     9   am
    47     3     4    2
    48    92    93    1
    49     9    10    1
    50    34    33    1
    51    34    37    1
    52    94    95    2
    53    94    93    1
    54   102   110   am
    55    62    65    1
    56    93    96    1
    57    76    77    1
    58    77    78    1
    59    47    48    2
    60    47    46    1
    61    46    49    1
    62    38    37    1
    63    12    11    2
    64    37    39    1
    65   117   116    2
    66    10    11    1
    67   110   111    1
    68    20    19   ar
    69    80    78   ar
    70    65    66    1
    71    78    79   ar
    72    11    13   am
    73    96    97    1
    74    18    19    1
    75    18    17    1
    76    49    50    1
    77    19    21   ar
    78    97    98    1
    79    97    99    1
    80   111   114    1
    81   111   112    1
    82   114   115    1
    83   116   115    1
    84   116   118   am
    85    66    68   ar
    86    66    67   ar
    87    68    70   ar
    88    13    14    1
    89    50    51    1
    90    14    17    1
    91    14    15    1
    92    67    69   ar
    93    70    71   ar
    94   112   113    2
    95   112   119   am
    96    59    58    1
    97   119   120    1
    98    15    22   am
    99    15    16    2
   100    51    52    1
   101   159   158    1
   102    22    23    1
   103    71    69   ar
   104    56    55    1
   105    56    57    2
   106   126   124   ar
   107    52    53    1
   108    58    55    1
   109    58    60    1
   110   157   158    1
   111   157   154    1
   112    55    54    1
   113   160   158    1
   114   120   123    1
   115   120   121    1
   116    23    24    1
   117   124   123    1
   118   124   125   ar
   119   155   154    1
   120   155   156    2
   121   154   153    1
   122   122   121    2
   123    25    24    2
   124    24    26   am
   125   172   171   ar
   126   144   142   am
   127   165   162    1
   128   139   138    2
   129    26    27    1
   130   171   173   ar
   131   171   170    1
   132   141   142    1
   133   141   140    1
   134    28    29    2
   135    28    27    1
   136   162   163    1
   137   162   161    1
   138   142   143    2
   139   166   167    1
   140   166   163   am
   141    27    30    1
   142   138   137    1
   143   138   145   am
   144   167   170    1
   145   167   168    1
   146   163   164    2
   147   137   140    1
   148   137   136    1
   149   146   147    1
   150   146   145    1
   151   146   149    1
   152   147   148    2
   153   149   150    1
   154    30    31    1
   155    30    32    1
   156   168   169    2
   157   150   152   am
   158   150   151    2
   159   134   135    1
   160   134   133    1
   161   130   129    2
   162   132   133    1
   163   132   131    1
   164   129   128    1
   165   131   128    1
   166   128   127    1
