@<TRIPOS>MOLECULE
tmp/2r3qA00.pdb
 200 190 0 0 0
SMALL
GASTEIGER

@<TRIPOS>ATOM
      1  N         -0.5910   24.2660   -2.8730 N.3     8  GLU8       -0.1245
      2  CA        -0.2560   23.0450   -2.1630 C.3     8  GLU8        0.1567
      3  C         -0.7890   23.0520   -0.7350 C.2     8  GLU8        0.2260
      4  O         -0.9540   24.1050   -0.1170 O.2     8  GLU8       -0.2867
      5  CB         1.2580   22.8240   -2.1560 C.3     8  GLU8        0.0388
      6  CG         2.0300   23.8470   -1.3270 C.3     8  GLU8        0.1160
      7  CD         3.5030   23.5250   -1.2120 C.2     8  GLU8        0.3649
      8  OE1        3.9270   22.4880   -1.7580 O.co2   8  GLU8       -0.2457
      9  OE2        4.2370   24.3040   -0.5650 O.co2   8  GLU8       -0.2457
     10  N         -0.3220   22.8290    2.9890 N.3    10  ILE10      -0.1231
     11  CA         0.8360   23.0890    3.8390 C.3    10  ILE10       0.1692
     12  C          0.6520   22.6110    5.2490 C.2    10  ILE10       0.2593
     13  O          1.4180   22.9960    6.1530 O.2    10  ILE10      -0.2718
     14  CB         1.3050   24.5690    3.8460 C.3    10  ILE10       0.0266
     15  CG1        0.2050   25.4880    4.3470 C.3    10  ILE10       0.0019
     16  CG2        1.8270   24.9840    2.4840 C.3    10  ILE10       0.0020
     17  CD1        0.6540   26.9510    4.4130 C.3    10  ILE10       0.0001
     18  N         -0.3910   21.8260    5.4780 N.am   11  GLY11      -0.1942
     19  CA        -0.5860   21.2740    6.7880 C.3    11  GLY11       0.2014
     20  C         -2.0390   21.0980    7.1530 C.2    11  GLY11       0.2639
     21  O         -2.9490   21.4270    6.3840 O.2    11  GLY11      -0.2714
     22  N         -2.2360   20.5390    8.3340 N.am   12  GLU12      -0.1963
     23  CA        -3.5570   20.3050    8.8610 C.3    12  GLU12       0.1733
     24  C         -3.6160   21.1020   10.1210 C.2    12  GLU12       0.2617
     25  O         -2.8390   20.8630   11.0560 O.2    12  GLU12      -0.2715
     26  CB        -3.7460   18.8060    9.1830 C.3    12  GLU12       0.0429
     27  CG        -2.9870   17.8810    8.2490 C.3    12  GLU12       0.1163
     28  CD        -3.5720   16.4930    8.2170 C.2    12  GLU12       0.3649
     29  OE1       -4.0480   16.0860    7.1360 O.co2  12  GLU12      -0.2457
     30  OE2       -3.5940   15.8270    9.2760 O.co2  12  GLU12      -0.2457
     31  N         -4.4650   22.1180   10.1340 N.am   13  GLY13      -0.1940
     32  CA        -4.6100   22.9650   11.3070 C.3    13  GLY13       0.2014
     33  C         -5.6680   22.4340   12.2890 C.2    13  GLY13       0.2639
     34  O         -6.2980   21.4150   12.0490 O.2    13  GLY13      -0.2714
     35  N         -5.8360   23.1310   13.3950 N.am   14  THR14      -0.1950
     36  CA        -6.8030   22.7600   14.3920 C.3    14  THR14       0.1897
     37  C         -8.1770   22.6340   13.7740 C.2    14  THR14       0.2313
     38  O         -8.9540   21.7140   14.0920 O.2    14  THR14      -0.2863
     39  CB        -6.8690   23.8790   15.4680 C.3    14  THR14       0.1794
     40  OG1       -5.5700   24.0600   16.0480 O.3    14  THR14      -0.2208
     41  CG2       -7.8820   23.5330   16.5930 C.3    14  THR14       0.0378
     42  N         -4.9330   23.5720    5.6670 N.3    18  VAL18      -0.1245
     43  CA        -4.3210   24.8660    5.3810 C.3    18  VAL18       0.1561
     44  C         -3.6000   24.7150    4.0490 C.2    18  VAL18       0.2260
     45  O         -2.8310   23.7450    3.8280 O.2    18  VAL18      -0.2867
     46  CB        -3.2670   25.2490    6.4300 C.3    18  VAL18       0.0252
     47  CG1       -2.6520   26.6630    6.0850 C.3    18  VAL18       0.0019
     48  CG2       -3.8940   25.2690    7.8440 C.3    18  VAL18       0.0019
     49  N         -1.3970   26.6960    0.7980 N.3    20  LYS20      -0.1245
     50  CA        -0.7130   27.8230    0.1890 C.3    20  LYS20       0.1561
     51  C         -1.5320   28.0640   -1.0810 C.2    20  LYS20       0.2260
     52  O         -1.8710   27.0900   -1.8020 O.2    20  LYS20      -0.2867
     53  CB         0.7300   27.4600   -0.1740 C.3    20  LYS20       0.0271
     54  CG         1.4960   28.6100   -0.8760 C.3    20  LYS20       0.0035
     55  CD         2.9360   28.2420   -1.1110 C.3    20  LYS20       0.0206
     56  CE         3.7270   29.4250   -1.6160 C.3    20  LYS20       0.1093
     57  NZ         5.1200   28.9670   -1.8180 N.3    20  LYS20      -0.1314
     58  N         -1.9830   32.2080    2.7400 N.3    31  ALA31      -0.1245
     59  CA        -2.3360   30.9490    3.4010 C.3    31  ALA31       0.1562
     60  C         -3.8530   30.9610    3.4890 C.2    31  ALA31       0.2260
     61  O         -4.4500   31.9450    3.9000 O.2    31  ALA31      -0.2867
     62  CB        -1.7160   30.8350    4.7840 C.3    31  ALA31       0.0290
     63  N         -7.1840   29.0150    5.0130 N.3    33  LYS33      -0.1245
     64  CA        -7.6130   28.0330    5.9970 C.3    33  LYS33       0.1561
     65  C         -9.0790   27.7550    5.9210 C.2    33  LYS33       0.2260
     66  O         -9.8740   28.6850    6.0230 O.2    33  LYS33      -0.2867
     67  CB        -7.2740   28.4990    7.4100 C.3    33  LYS33       0.0271
     68  CG        -5.8120   28.7940    7.5710 C.3    33  LYS33       0.0035
     69  CD        -5.2940   28.6940    8.9870 C.3    33  LYS33       0.0206
     70  CE        -3.7980   28.9810    8.9460 C.3    33  LYS33       0.1093
     71  NZ        -3.1040   28.7130   10.2490 N.3    33  LYS33      -0.1314
     72  N          0.5290   37.4280   12.3760 N.3    55  VAL55      -0.1245
     73  CA         0.2850   37.1590   10.9790 C.3    55  VAL55       0.1561
     74  C         -1.0040   37.8580   10.5550 C.2    55  VAL55       0.2260
     75  O         -2.0160   37.7520   11.2250 O.2    55  VAL55      -0.2867
     76  CB         0.1370   35.6350   10.7580 C.3    55  VAL55       0.0252
     77  CG1       -0.1660   35.3210    9.2580 C.3    55  VAL55       0.0019
     78  CG2        1.4000   34.8950   11.1860 C.3    55  VAL55       0.0019
     79  N         -4.9000   34.5110    4.9750 N.3    71  PHE71      -0.1227
     80  CA        -3.8270   35.1250    5.7930 C.3    71  PHE71       0.1736
     81  C         -2.5980   35.4330    4.9840 C.2    71  PHE71       0.2595
     82  O         -2.3290   34.8020    3.9630 O.2    71  PHE71      -0.2718
     83  CB        -3.3680   34.1030    6.8540 C.3    71  PHE71       0.0547
     84  CG        -4.3110   33.9450    7.9900 C.ar   71  PHE71      -0.0202
     85  CD1       -4.2960   34.8360    9.0540 C.ar   71  PHE71      -0.0042
     86  CD2       -5.1460   32.8540    8.0480 C.ar   71  PHE71      -0.0042
     87  CE1       -5.1330   34.6590   10.1280 C.ar   71  PHE71      -0.0003
     88  CE2       -5.9820   32.6510    9.1540 C.ar   71  PHE71      -0.0003
     89  CZ        -5.9550   33.5600   10.1870 C.ar   71  PHE71      -0.0000
     90  N         -1.8110   36.3790    5.4820 N.am   72  GLU72      -0.1965
     91  CA        -0.4520   36.5840    5.0270 C.3    72  GLU72       0.1733
     92  C          0.2920   35.2130    5.0660 C.2    72  GLU72       0.2616
     93  O          0.1350   34.4550    6.0480 O.2    72  GLU72      -0.2715
     94  CB         0.2360   37.5580    6.0130 C.3    72  GLU72       0.0429
     95  CG         1.7440   37.6500    5.9370 C.3    72  GLU72       0.1163
     96  CD         2.3530   38.4240    7.0990 C.2    72  GLU72       0.3649
     97  OE1        1.6340   38.7890    8.0460 O.co2  72  GLU72      -0.2457
     98  OE2        3.5600   38.6560    7.0010 O.co2  72  GLU72      -0.2457
     99  N          1.1360   34.9180    4.0900 N.am   73  PHE73      -0.1960
    100  CA         1.8510   33.6720    4.0170 C.3    73  PHE73       0.1771
    101  C          3.2580   33.8390    4.5590 C.2    73  PHE73       0.2619
    102  O          3.9630   34.8130    4.2230 O.2    73  PHE73      -0.2715
    103  CB         1.9420   33.2280    2.5320 C.3    73  PHE73       0.0574
    104  CG         2.7130   31.9880    2.3300 C.ar   73  PHE73      -0.0200
    105  CD1        2.1180   30.7390    2.5370 C.ar   73  PHE73      -0.0042
    106  CD2        4.0590   32.0320    1.9390 C.ar   73  PHE73      -0.0042
    107  CE1        2.8390   29.5710    2.3580 C.ar   73  PHE73      -0.0003
    108  CE2        4.7770   30.8640    1.7750 C.ar   73  PHE73      -0.0003
    109  CZ         4.1850   29.6300    1.9830 C.ar   73  PHE73      -0.0000
    110  N          3.7000   32.8580    5.3310 N.am   74  LEU74      -0.1963
    111  CA         5.1240   32.8070    5.7480 C.3    74  LEU74       0.1728
    112  C          5.6390   31.4370    5.3750 C.2    74  LEU74       0.2616
    113  O          4.9100   30.4470    5.4390 O.2    74  LEU74      -0.2715
    114  CB         5.3290   33.0760    7.2520 C.3    74  LEU74       0.0311
    115  CG         5.2400   34.5530    7.5780 C.3    74  LEU74       0.0022
    116  CD1        3.8050   34.9140    7.8320 C.3    74  LEU74       0.0001
    117  CD2        6.1460   34.9720    8.7600 C.3    74  LEU74       0.0001
    118  N          6.9430   31.3680    5.0890 N.am   75  HIS75      -0.1959
    119  CA         7.5120   30.1600    4.5510 C.3    75  HIS75       0.1787
    120  C          7.8330   29.0230    5.4850 C.2    75  HIS75       0.2620
    121  O          7.9580   27.8880    5.0490 O.2    75  HIS75      -0.2715
    122  CB         8.7550   30.4700    3.6710 C.3    75  HIS75       0.0785
    123  CG         8.4190   31.1190    2.3440 C.ar   75  HIS75       0.0821
    124  ND1        8.2340   32.4760    2.2000 N.ar   75  HIS75      -0.2267
    125  CD2        8.2690   30.5810    1.0970 C.ar   75  HIS75       0.1154
    126  CE1        7.9130   32.7430    0.9320 C.ar   75  HIS75       0.1986
    127  NE2        7.9800   31.6190    0.2420 N.ar   75  HIS75      -0.2212
    128  N          8.0180   29.2960    6.7700 N.am   76  GLN76      -0.1963
    129  CA         8.4520   28.2430    7.6830 C.3    76  GLN76       0.1733
    130  C          7.8710   28.4690    9.0550 C.2    76  GLN76       0.2616
    131  O          7.5350   29.5780    9.3970 O.2    76  GLN76      -0.2715
    132  CB         9.9780   28.2720    7.7730 C.3    76  GLN76       0.0408
    133  CG        10.5850   27.0700    8.5080 C.3    76  GLN76       0.0908
    134  CD        11.9780   26.7410    8.0270 C.2    76  GLN76       0.2608
    135  OE1       12.2020   26.5210    6.8310 O.2    76  GLN76      -0.2717
    136  NE2       12.9320   26.7260    8.9490 N.am   76  GLN76      -0.0878
    137  N          7.7530   27.3950    9.8330 N.am   77  ASP77      -0.1971
    138  CA         7.3300   27.4850   11.2270 C.3    77  ASP77       0.1709
    139  C          8.4810   27.2180   12.1900 C.2    77  ASP77       0.2293
    140  O          9.5770   26.7530   11.7870 O.2    77  ASP77      -0.2864
    141  CB         6.0860   26.6190   11.5270 C.3    77  ASP77       0.1436
    142  CG         6.3530   25.1170   11.4980 C.2    77  ASP77       0.3671
    143  OD1        7.3670   24.6810   11.9940 O.co2  77  ASP77      -0.2456
    144  OD2        5.4570   24.3740   11.0880 O.co2  77  ASP77      -0.2456
    145  N          9.6220   23.3850   12.6350 N.3    80  LYS80      -0.1245
    146  CA        10.5610   22.9010   11.6390 C.3    80  LYS80       0.1561
    147  C         11.9410   23.5160   11.7790 C.2    80  LYS80       0.2260
    148  O         12.9470   22.8230   11.6480 O.2    80  LYS80      -0.2867
    149  CB         9.9900   23.0700   10.2310 C.3    80  LYS80       0.0271
    150  CG         8.6660   22.3520   10.0530 C.3    80  LYS80       0.0035
    151  CD         8.4400   21.9130    8.6170 C.3    80  LYS80       0.0206
    152  CE         8.4820   20.3950    8.4930 C.3    80  LYS80       0.1093
    153  NZ         7.1810   19.8240    8.0450 N.3    80  LYS80      -0.1314
    154  N          2.0320   27.5280   20.2140 N.3   120  LYS120     -0.1245
    155  CA         2.8720   26.3220   20.1210 C.3   120  LYS120      0.1561
    156  C          3.8230   26.5830   18.9560 C.2   120  LYS120      0.2260
    157  O          3.5490   27.4450   18.0630 O.2   120  LYS120     -0.2867
    158  CB         2.0480   25.0510   19.8810 C.3   120  LYS120      0.0271
    159  CG         1.1040   25.1110   18.6900 C.3   120  LYS120      0.0035
    160  CD        -0.0780   24.1950   18.9690 C.3   120  LYS120      0.0206
    161  CE        -1.1100   24.2750   17.8800 C.3   120  LYS120      0.1093
    162  NZ        -2.2250   23.3240   18.2510 N.3   120  LYS120     -0.1314
    163  N          4.2550   25.2040   16.1640 N.3   122  GLN122     -0.1231
    164  CA         3.5970   25.1080   14.8340 C.3   122  GLN122      0.1698
    165  C          2.8930   26.3830   14.3930 C.2   122  GLN122      0.2592
    166  O          2.6770   26.5800   13.1960 O.2   122  GLN122     -0.2718
    167  CB         2.6190   23.9020   14.7010 C.3   122  GLN122      0.0381
    168  CG         1.8460   23.9150   13.2670 C.3   122  GLN122      0.0905
    169  CD         1.4420   22.5120   12.6710 C.2   122  GLN122      0.2608
    170  OE1        0.6540   21.7810   13.2660 O.2   122  GLN122     -0.2717
    171  NE2        1.8580   22.2500   11.4350 N.am  122  GLN122     -0.0878
    172  N          2.5190   27.2530   15.3300 N.am  123  ASN123     -0.1974
    173  CA         1.8550   28.5010   14.9320 C.3   123  ASN123      0.1688
    174  C          2.6930   29.7070   15.1680 C.2   123  ASN123      0.2292
    175  O          2.1920   30.8230   15.1170 O.2   123  ASN123     -0.2864
    176  CB         0.4370   28.6390   15.4300 C.3   123  ASN123      0.1181
    177  CG         0.3150   28.4980   16.8980 C.2   123  ASN123      0.2629
    178  OD1        1.1930   28.9390   17.6650 O.2   123  ASN123     -0.2716
    179  ND2       -0.8230   27.9460   17.3380 N.am  123  ASN123     -0.0877
    180  N          5.5350   31.5930   13.1800 N.3   125  LEU125     -0.1245
    181  CA         6.0260   31.5410   11.7900 C.3   125  LEU125      0.1561
    182  C          7.1540   32.4910   11.5750 C.2   125  LEU125      0.2260
    183  O          7.1780   33.5780   12.1310 O.2   125  LEU125     -0.2867
    184  CB         4.8850   31.8240   10.8480 C.3   125  LEU125      0.0270
    185  CG         3.6340   30.9410   11.0310 C.3   125  LEU125      0.0019
    186  CD1        2.6230   31.2990    9.9640 C.3   125  LEU125      0.0001
    187  CD2        3.9350   29.4300   10.9810 C.3   125  LEU125      0.0001
    188  N          0.6160   33.1270   14.5100 N.3   135  ALA135     -0.1231
    189  CA        -0.5130   32.7530   13.6350 C.3   135  ALA135      0.1694
    190  C         -1.6620   32.2400   14.4740 C.2   135  ALA135      0.2592
    191  O         -1.4570   31.7090   15.5780 O.2   135  ALA135     -0.2718
    192  CB        -0.1120   31.7100   12.6870 C.3   135  ALA135      0.0304
    193  N         -2.8710   32.4230   13.9450 N.am  136  ASP136     -0.1974
    194  CA        -4.0950   31.9610   14.5590 C.3   136  ASP136      0.1709
    195  C         -4.4910   32.6710   15.8400 C.2   136  ASP136      0.2293
    196  O         -5.2790   32.1480   16.6280 O.2   136  ASP136     -0.2864
    197  CB        -4.0660   30.4370   14.7760 C.3   136  ASP136      0.1436
    198  CG        -3.9700   29.6370   13.4400 C.2   136  ASP136      0.3671
    199  OD1       -3.9760   30.2390   12.3280 O.co2 136  ASP136     -0.2456
    200  OD2       -3.8800   28.4010   13.4940 O.co2 136  ASP136     -0.2456
@<TRIPOS>BOND
     1     1     2    1
     2     2     5    1
     3     2     3    1
     4     5     6    1
     5    57    56    1
     6    52    51    2
     7     8     7   ar
     8    56    55    1
     9     6     7    1
    10     7     9   ar
    11    55    54    1
    12    51    50    1
    13    54    53    1
    14     3     4    2
    15    53    50    1
    16    50    49    1
    17   127   126   ar
    18   127   125   ar
    19   126   124   ar
    20   125   123   ar
    21   108   106   ar
    22   108   109   ar
    23   106   104   ar
    24   109   107   ar
    25   124   123   ar
    26   104   103    1
    27   104   105   ar
    28   123   122    1
    29   107   105   ar
    30    16    14    1
    31   103   100    1
    32    58    59    1
    33    10    11    1
    34    59    60    1
    35    59    62    1
    36    60    61    2
    37   122   119    1
    38    45    44    2
    39    11    14    1
    40    11    12    1
    41    14    15    1
    42    82    81    2
    43   100    99    1
    44   100   101    1
    45    44    43    1
    46    99    92   am
    47   102   101    2
    48    15    17    1
    49   119   118    1
    50   119   120    1
    51   101   110   am
    52    79    80    1
    53    81    90   am
    54    81    80    1
    55    63    64    1
    56    91    92    1
    57    91    90    1
    58    91    94    1
    59   121   120    2
    60    92    93    2
    61   118   112   am
    62    12    18   am
    63    12    13    2
    64   110   111    1
    65   112   113    2
    66   112   111    1
    67    43    42    1
    68    43    46    1
    69    18    19    1
    70   120   128   am
    71   111   114    1
    72    80    83    1
    73    65    64    1
    74    65    66    2
    75    95    94    1
    76    95    96    1
    77    64    67    1
    78    47    46    1
    79    21    20    2
    80    46    48    1
    81   128   129    1
    82    19    20    1
    83   135   134    2
    84    83    84    1
    85    98    96   ar
    86    96    97   ar
    87    29    28   ar
    88    20    22   am
    89   114   115    1
    90    67    68    1
    91    68    69    1
    92   115   116    1
    93   115   117    1
    94   129   132    1
    95   129   130    1
    96   132   133    1
    97    84    86   ar
    98    84    85   ar
    99   134   133    1
   100   134   136   am
   101   153   152    1
   102    86    88   ar
   103    28    27    1
   104    28    30   ar
   105    27    26    1
   106    22    23    1
   107   152   151    1
   108   151   150    1
   109    23    26    1
   110    23    24    1
   111    70    69    1
   112    70    71    1
   113    85    87   ar
   114   130   131    2
   115   130   137   am
   116    88    89   ar
   117    77    76    1
   118   137   138    1
   119   186   185    1
   120   150   149    1
   121    24    31   am
   122    24    25    2
   123    87    89   ar
   124    31    32    1
   125   149   146    1
   126    74    73    1
   127    74    75    2
   128    76    73    1
   129    76    78    1
   130   184   185    1
   131   184   181    1
   132    73    72    1
   133   187   185    1
   134   144   142   ar
   135   138   141    1
   136   138   139    1
   137    32    33    1
   138   171   169   am
   139   142   141    1
   140   142   143   ar
   141   182   181    1
   142   182   183    2
   143   146   147    1
   144   146   145    1
   145   148   147    2
   146   140   139    2
   147   181   180    1
   148    34    33    2
   149    33    35   am
   150   199   198   ar
   151   169   170    2
   152   169   168    1
   153   192   189    1
   154   166   165    2
   155   168   167    1
   156    35    36    1
   157   198   200   ar
   158   198   197    1
   159   189   190    1
   160   189   188    1
   161    37    38    2
   162    37    36    1
   163   193   190   am
   164   193   194    1
   165    36    39    1
   166   165   164    1
   167   165   172   am
   168   190   191    2
   169   194   197    1
   170   194   195    1
   171   167   164    1
   172   164   163    1
   173   173   174    1
   174   173   172    1
   175   173   176    1
   176   175   174    2
   177   176   177    1
   178    39    40    1
   179    39    41    1
   180   195   196    2
   181   177   179   am
   182   177   178    2
   183   161   162    1
   184   161   160    1
   185   157   156    2
   186   159   160    1
   187   159   158    1
   188   156   155    1
   189   158   155    1
   190   155   154    1
