@<TRIPOS>MOLECULE
tmp/2r3rA00.pdb
 185 177 0 0 0
SMALL
GASTEIGER

@<TRIPOS>ATOM
      1  N         -0.4780   24.4030   -2.4970 N.3     8  GLU8       -0.1231
      2  CA        -0.1410   23.1850   -1.8000 C.3     8  GLU8        0.1699
      3  C         -0.6100   23.2790   -0.3650 C.2     8  GLU8        0.2592
      4  O         -0.8370   24.3820    0.1530 O.2     8  GLU8       -0.2718
      5  CB         1.3770   22.9570   -1.8190 C.3     8  GLU8        0.0402
      6  CG         2.1050   23.6590   -0.6860 C.3     8  GLU8        0.1161
      7  CD         3.6090   23.6620   -0.8520 C.2     8  GLU8        0.3649
      8  OE1        4.1260   24.5750   -1.5220 O.co2   8  GLU8       -0.2457
      9  OE2        4.2800   22.7900   -0.2590 O.co2   8  GLU8       -0.2457
     10  N         -0.7290   22.1300    0.2970 N.am    9  LYS9       -0.1966
     11  CA        -1.1150   22.1120    1.6990 C.3     9  LYS9        0.1728
     12  C          0.1390   22.4610    2.4550 C.2     9  LYS9        0.2616
     13  O          1.2290   21.9640    2.1260 O.2     9  LYS9       -0.2715
     14  CB        -1.5850   20.7100    2.1250 C.3     9  LYS9        0.0311
     15  CG        -1.9020   20.6000    3.6080 C.3     9  LYS9        0.0038
     16  CD        -2.4920   19.2400    3.9610 C.3     9  LYS9        0.0206
     17  CE        -2.8440   19.1640    5.4460 C.3     9  LYS9        0.1093
     18  NZ        -3.3450   17.8150    5.8430 N.3     9  LYS9       -0.1314
     19  N          0.0160   23.3520    3.4210 N.am   10  ILE10      -0.1963
     20  CA         1.1630   23.7440    4.2230 C.3    10  ILE10       0.1727
     21  C          0.9690   23.4410    5.6810 C.2    10  ILE10       0.2617
     22  O          1.8390   23.7300    6.4980 O.2    10  ILE10      -0.2715
     23  CB         1.5490   25.2300    4.0460 C.3    10  ILE10       0.0290
     24  CG1        0.4390   26.1470    4.5830 C.3    10  ILE10       0.0022
     25  CG2        1.9390   25.5150    2.6210 C.3    10  ILE10       0.0023
     26  CD1        0.8220   27.6260    4.5470 C.3    10  ILE10       0.0001
     27  N         -0.1550   22.8300    6.0250 N.am   11  GLY11      -0.1940
     28  CA        -0.3920   22.4980    7.4110 C.3    11  GLY11       0.2014
     29  C         -1.7720   21.9640    7.6820 C.2    11  GLY11       0.2639
     30  O         -2.7070   22.1630    6.8970 O.2    11  GLY11      -0.2714
     31  N         -1.8900   21.2730    8.8120 N.am   12  GLU12      -0.1963
     32  CA        -3.1650   20.7320    9.2710 C.3    12  GLU12       0.1733
     33  C         -3.4630   21.4950   10.5310 C.2    12  GLU12       0.2616
     34  O         -2.8470   21.2640   11.5650 O.2    12  GLU12      -0.2715
     35  CB        -3.0340   19.2370    9.5700 C.3    12  GLU12       0.0429
     36  CG        -3.8400   18.3610    8.6270 C.3    12  GLU12       0.1163
     37  CD        -3.3020   16.9380    8.5170 C.2    12  GLU12       0.3649
     38  OE1       -2.2200   16.6520    9.0700 O.co2  12  GLU12      -0.2457
     39  OE2       -3.9820   16.1080    7.8880 O.co2  12  GLU12      -0.2457
     40  N         -4.3100   22.5020   10.4090 N.am   13  GLY13      -0.1955
     41  CA        -4.5930   23.3790   11.5230 C.3    13  GLY13       0.1869
     42  C         -5.6050   22.8040   12.4970 C.2    13  GLY13       0.2309
     43  O         -6.1810   21.7480   12.2670 O.2    13  GLY13      -0.2863
     44  N         -4.7290   24.0250    5.9870 N.3    18  VAL18      -0.1245
     45  CA        -4.1580   25.3300    5.6640 C.3    18  VAL18       0.1561
     46  C         -3.3840   25.1760    4.3940 C.2    18  VAL18       0.2260
     47  O         -2.5440   24.2650    4.2630 O.2    18  VAL18      -0.2867
     48  CB        -3.2160   25.8330    6.7510 C.3    18  VAL18       0.0252
     49  CG1       -2.8090   27.2890    6.4410 C.3    18  VAL18       0.0019
     50  CG2       -3.8850   25.7290    8.1350 C.3    18  VAL18       0.0019
     51  N         -1.2740   27.0400    1.0420 N.3    20  LYS20      -0.1245
     52  CA        -0.6340   28.1590    0.4340 C.3    20  LYS20       0.1561
     53  C         -1.4920   28.3740   -0.8290 C.2    20  LYS20       0.2260
     54  O         -1.7870   27.4100   -1.5660 O.2    20  LYS20      -0.2867
     55  CB         0.8010   27.8000    0.0310 C.3    20  LYS20       0.0271
     56  CG         1.5220   28.9370   -0.7080 C.3    20  LYS20       0.0035
     57  CD         2.9600   28.5320   -1.0630 C.3    20  LYS20       0.0206
     58  CE         3.8110   29.7420   -1.4570 C.3    20  LYS20       0.1093
     59  NZ         5.2270   29.3030   -1.7370 N.3    20  LYS20      -0.1314
     60  N         -1.9590   32.5210    2.7720 N.3    31  ALA31      -0.1245
     61  CA        -2.2930   31.2660    3.4350 C.3    31  ALA31       0.1562
     62  C         -3.8010   31.2700    3.6010 C.2    31  ALA31       0.2260
     63  O         -4.3880   32.2620    4.0230 O.2    31  ALA31      -0.2867
     64  CB        -1.5990   31.1530    4.7750 C.3    31  ALA31       0.0290
     65  N         -7.0610   29.3770    5.1830 N.3    33  LYS33      -0.1245
     66  CA        -7.5110   28.4110    6.1860 C.3    33  LYS33       0.1561
     67  C         -8.9780   28.1050    6.0440 C.2    33  LYS33       0.2260
     68  O         -9.8020   29.0050    6.0780 O.2    33  LYS33      -0.2867
     69  CB        -7.2230   28.9270    7.6090 C.3    33  LYS33       0.0271
     70  CG        -5.7620   29.3370    7.8170 C.3    33  LYS33       0.0035
     71  CD        -5.2160   28.9160    9.2120 C.3    33  LYS33       0.0206
     72  CE        -3.7900   29.3950    9.3990 C.3    33  LYS33       0.1093
     73  NZ        -3.3030   29.2090   10.8490 N.3    33  LYS33      -0.1314
     74  N          0.4900   37.6900   12.4930 N.3    57  VAL57      -0.1245
     75  CA         0.2800   37.3470   11.0890 C.3    57  VAL57       0.1561
     76  C         -0.9820   38.0640   10.6400 C.2    57  VAL57       0.2260
     77  O         -2.0220   37.9640   11.2890 O.2    57  VAL57      -0.2867
     78  CB         0.1390   35.8260   10.9260 C.3    57  VAL57       0.0252
     79  CG1       -0.1200   35.4400    9.4610 C.3    57  VAL57       0.0019
     80  CG2        1.4260   35.1450   11.4140 C.3    57  VAL57       0.0019
     81  N         -4.8550   34.7640    5.1700 N.3    73  PHE73      -0.1227
     82  CA        -3.7890   35.3620    5.9610 C.3    73  PHE73       0.1736
     83  C         -2.5840   35.6990    5.1160 C.2    73  PHE73       0.2595
     84  O         -2.3160   35.0480    4.1010 O.2    73  PHE73      -0.2718
     85  CB        -3.3040   34.3440    6.9940 C.3    73  PHE73       0.0547
     86  CG        -4.2200   34.1760    8.1670 C.ar   73  PHE73      -0.0202
     87  CD1       -4.1740   35.0710    9.2280 C.ar   73  PHE73      -0.0042
     88  CD2       -5.0970   33.1090    8.2230 C.ar   73  PHE73      -0.0042
     89  CE1       -4.9720   34.8920   10.3470 C.ar   73  PHE73      -0.0003
     90  CE2       -5.9210   32.9220    9.3560 C.ar   73  PHE73      -0.0003
     91  CZ        -5.8520   33.8260   10.4030 C.ar   73  PHE73      -0.0000
     92  N         -1.7410   36.5610    5.6690 N.am   74  GLU74      -0.1965
     93  CA        -0.4200   36.8240    5.0940 C.3    74  GLU74       0.1733
     94  C          0.3530   35.4580    5.1310 C.2    74  GLU74       0.2616
     95  O          0.1710   34.6510    6.0690 O.2    74  GLU74      -0.2715
     96  CB         0.2940   37.8640    5.9790 C.3    74  GLU74       0.0429
     97  CG         1.7280   37.6380    6.1840 C.3    74  GLU74       0.1163
     98  CD         2.3660   38.6210    7.1950 C.2    74  GLU74       0.3649
     99  OE1        1.7280   39.0060    8.2090 O.co2  74  GLU74      -0.2457
    100  OE2        3.5380   38.9620    6.9600 O.co2  74  GLU74      -0.2457
    101  N          1.1930   35.1900    4.1350 N.am   75  PHE75      -0.1960
    102  CA         1.9400   33.9410    4.0670 C.3    75  PHE75       0.1771
    103  C          3.3500   34.1290    4.6130 C.2    75  PHE75       0.2619
    104  O          4.0260   35.0950    4.2510 O.2    75  PHE75      -0.2715
    105  CB         2.0580   33.4720    2.6090 C.3    75  PHE75       0.0574
    106  CG         2.8790   32.2360    2.4440 C.ar   75  PHE75      -0.0200
    107  CD1        2.3410   30.9710    2.7250 C.ar   75  PHE75      -0.0042
    108  CD2        4.1880   32.3160    1.9920 C.ar   75  PHE75      -0.0042
    109  CE1        3.1110   29.8330    2.5800 C.ar   75  PHE75      -0.0003
    110  CE2        4.9470   31.1710    1.8630 C.ar   75  PHE75      -0.0003
    111  CZ         4.4010   29.9340    2.1390 C.ar   75  PHE75      -0.0000
    112  N          3.8350   33.1720    5.4110 N.am   76  LEU76      -0.1963
    113  CA         5.2370   33.1640    5.8530 C.3    76  LEU76       0.1728
    114  C          5.8210   31.8130    5.4810 C.2    76  LEU76       0.2616
    115  O          5.1050   30.8120    5.4600 O.2    76  LEU76      -0.2715
    116  CB         5.3450   33.3760    7.3670 C.3    76  LEU76       0.0311
    117  CG         5.1930   34.8520    7.7120 C.3    76  LEU76       0.0022
    118  CD1        3.7440   35.1450    7.9840 C.3    76  LEU76       0.0001
    119  CD2        6.1020   35.2770    8.9020 C.3    76  LEU76       0.0001
    120  N          7.1130   31.7880    5.1550 N.am   77  HIS77      -0.1959
    121  CA         7.7310   30.5820    4.5910 C.3    77  HIS77       0.1787
    122  C          8.0720   29.4400    5.5330 C.2    77  HIS77       0.2620
    123  O          8.2790   28.3240    5.0730 O.2    77  HIS77      -0.2715
    124  CB         8.9460   30.9640    3.7360 C.3    77  HIS77       0.0785
    125  CG         8.5870   31.6040    2.4180 C.ar   77  HIS77       0.0821
    126  ND1        8.2620   32.9440    2.2960 N.ar   77  HIS77      -0.2267
    127  CD2        8.4630   31.0700    1.1730 C.ar   77  HIS77       0.1154
    128  CE1        7.9650   33.2020    1.0270 C.ar   77  HIS77       0.1986
    129  NE2        8.0790   32.0850    0.3320 N.ar   77  HIS77      -0.2212
    130  N          8.1700   29.6940    6.8390 N.am   78  GLN78      -0.1963
    131  CA         8.5590   28.6030    7.7410 C.3    78  GLN78       0.1733
    132  C          7.9380   28.8290    9.1200 C.2    78  GLN78       0.2616
    133  O          7.6500   29.9440    9.4930 O.2    78  GLN78      -0.2715
    134  CB        10.0780   28.5720    7.8630 C.3    78  GLN78       0.0408
    135  CG        10.6030   27.3850    8.6410 C.3    78  GLN78       0.0908
    136  CD        11.9600   26.9360    8.1660 C.2    78  GLN78       0.2608
    137  OE1       12.1540   26.6440    6.9750 O.2    78  GLN78      -0.2717
    138  NE2       12.9230   26.9200    9.0740 N.am   78  GLN78      -0.0878
    139  N          7.7350   27.7420    9.8680 N.am   79  ASP79      -0.1971
    140  CA         7.2460   27.8650   11.2440 C.3    79  ASP79       0.1709
    141  C          8.3630   27.4970   12.2160 C.2    79  ASP79       0.2293
    142  O          9.3920   26.9320   11.8170 O.2    79  ASP79      -0.2864
    143  CB         5.9780   27.0390   11.5010 C.3    79  ASP79       0.1436
    144  CG         6.2060   25.5560   11.3610 C.2    79  ASP79       0.3671
    145  OD1        7.0180   25.0120   12.1320 O.co2  79  ASP79      -0.2456
    146  OD2        5.5900   24.9410   10.4680 O.co2  79  ASP79      -0.2456
    147  N          9.4110   23.6650   12.6520 N.3    82  LYS82      -0.1245
    148  CA        10.3150   23.1920   11.6010 C.3    82  LYS82       0.1561
    149  C         11.7180   23.7660   11.7370 C.2    82  LYS82       0.2260
    150  O         12.7080   23.0660   11.5300 O.2    82  LYS82      -0.2867
    151  CB         9.7340   23.4940   10.2100 C.3    82  LYS82       0.0271
    152  CG         8.6640   22.5180    9.7600 C.3    82  LYS82       0.0035
    153  CD         8.2900   22.7310    8.2890 C.3    82  LYS82       0.0206
    154  CE         6.8030   22.4800    8.0480 C.3    82  LYS82       0.1093
    155  NZ         6.5760   21.4200    7.0170 N.3    82  LYS82      -0.1314
    156  N          4.1830   25.4910   16.2910 N.3   124  GLN124     -0.1231
    157  CA         3.5270   25.4170   14.9640 C.3   124  GLN124      0.1698
    158  C          2.8580   26.7040   14.5320 C.2   124  GLN124      0.2592
    159  O          2.6360   26.9120   13.3340 O.2   124  GLN124     -0.2718
    160  CB         2.5080   24.2720   14.9050 C.3   124  GLN124      0.0381
    161  CG         3.1090   22.9280   14.5730 C.3   124  GLN124      0.0905
    162  CD         2.1230   22.0220   13.8730 C.2   124  GLN124      0.2608
    163  OE1        2.4510   21.3760   12.8720 O.2   124  GLN124     -0.2717
    164  NE2        0.8840   21.9950   14.3690 N.am  124  GLN124     -0.0878
    165  N          2.4540   27.5320   15.4820 N.am  125  ASN125     -0.1974
    166  CA         1.8150   28.7970   15.0900 C.3   125  ASN125      0.1688
    167  C          2.6560   30.0320   15.2600 C.2   125  ASN125      0.2292
    168  O          2.1580   31.1430   15.1930 O.2   125  ASN125     -0.2864
    169  CB         0.4020   28.9340   15.5740 C.3   125  ASN125      0.1181
    170  CG         0.2860   28.7710   17.0140 C.2   125  ASN125      0.2629
    171  OD1        1.1360   29.2430   17.7520 O.2   125  ASN125     -0.2716
    172  ND2       -0.8390   28.1820   17.4740 N.am  125  ASN125     -0.0877
    173  N          5.4770   31.8800   13.2640 N.3   127  LEU127     -0.1245
    174  CA         5.9510   31.8490   11.8770 C.3   127  LEU127      0.1561
    175  C          7.1010   32.8090   11.6320 C.2   127  LEU127      0.2260
    176  O          7.1190   33.8850   12.1810 O.2   127  LEU127     -0.2867
    177  CB         4.7980   32.1360   10.9240 C.3   127  LEU127      0.0270
    178  CG         3.5510   31.2640   11.1780 C.3   127  LEU127      0.0019
    179  CD1        2.4650   31.6260   10.1710 C.3   127  LEU127      0.0001
    180  CD2        3.9170   29.7710   11.0360 C.3   127  LEU127      0.0001
    181  N          0.5060   33.4450   14.7490 N.3   137  ALA137     -0.1245
    182  CA        -0.6570   33.1410   13.9130 C.3   137  ALA137      0.1562
    183  C         -1.7730   32.5820   14.7890 C.2   137  ALA137      0.2260
    184  O         -1.5140   32.0070   15.8540 O.2   137  ALA137     -0.2867
    185  CB        -0.2990   32.1290   12.8610 C.3   137  ALA137      0.0290
@<TRIPOS>BOND
     1     1     2    1
     2     5     2    1
     3     5     6    1
     4     2     3    1
     5    59    58    1
     6    54    53    2
     7     8     7   ar
     8    58    57    1
     9    57    56    1
    10     7     6    1
    11     7     9   ar
    12    53    52    1
    13    56    55    1
    14     3     4    2
    15     3    10   am
    16    55    52    1
    17    10    11    1
    18   129   128   ar
    19   129   127   ar
    20    52    51    1
    21   128   126   ar
    22   127   125   ar
    23    11    14    1
    24    11    12    1
    25   110   108   ar
    26   110   111   ar
    27   108   106   ar
    28    14    15    1
    29    13    12    2
    30   111   109   ar
    31   126   125   ar
    32   125   124    1
    33   106   105    1
    34   106   107   ar
    35    12    19   am
    36   109   107   ar
    37   105   102    1
    38    25    23    1
    39    60    61    1
    40    19    20    1
    41    61    62    1
    42    61    64    1
    43    62    63    2
    44    15    16    1
    45   124   121    1
    46    16    17    1
    47    23    20    1
    48    23    24    1
    49   102   101    1
    50   102   103    1
    51    84    83    2
    52   101    94   am
    53    20    21    1
    54   104   103    2
    55    47    46    2
    56    46    45    1
    57    26    24    1
    58   121   120    1
    59   121   122    1
    60   103   112   am
    61   123   122    2
    62    93    94    1
    63    93    92    1
    64    93    96    1
    65    83    92   am
    66    83    82    1
    67    94    95    2
    68   120   114   am
    69    81    82    1
    70    65    66    1
    71   112   113    1
    72    17    18    1
    73   115   114    2
    74   114   113    1
    75   122   130   am
    76    45    44    1
    77    45    48    1
    78    21    27   am
    79    21    22    2
    80   113   116    1
    81    82    85    1
    82    96    97    1
    83    27    28    1
    84    67    68    2
    85    67    66    1
    86    97    98    1
    87    66    69    1
    88    49    48    1
    89    48    50    1
    90   130   131    1
    91    30    29    2
    92   100    98   ar
    93   137   136    2
    94    85    86    1
    95   155   154    1
    96    98    99   ar
    97   116   117    1
    98    28    29    1
    99    69    70    1
   100    29    31   am
   101   117   118    1
   102   117   119    1
   103   131   134    1
   104   131   132    1
   105    70    71    1
   106   134   135    1
   107    39    37   ar
   108   154   153    1
   109   136   135    1
   110   136   138   am
   111    86    88   ar
   112    86    87   ar
   113    88    90   ar
   114   153   152    1
   115    37    36    1
   116    37    38   ar
   117    36    35    1
   118    31    32    1
   119   132   133    2
   120   132   139   am
   121    71    72    1
   122    87    89   ar
   123    32    35    1
   124    32    33    1
   125    90    91   ar
   126    72    73    1
   127    79    78    1
   128   152   151    1
   129   139   140    1
   130   179   178    1
   131   151   148    1
   132    89    91   ar
   133    40    33   am
   134    40    41    1
   135   146   144   ar
   136    33    34    2
   137    76    75    1
   138    76    77    2
   139   177   178    1
   140   177   174    1
   141    78    75    1
   142    78    80    1
   143   180   178    1
   144    75    74    1
   145   140   143    1
   146   140   141    1
   147   144   143    1
   148   144   145   ar
   149    41    42    1
   150   150   149    2
   151   148   149    1
   152   148   147    1
   153   175   174    1
   154   175   176    2
   155   142   141    2
   156   174   173    1
   157    43    42    2
   158   185   182    1
   159   163   162    2
   160   159   158    2
   161   162   164   am
   162   162   161    1
   163   182   181    1
   164   182   183    1
   165   158   157    1
   166   158   165   am
   167   161   160    1
   168   183   184    2
   169   160   157    1
   170   157   156    1
   171   166   167    1
   172   166   165    1
   173   166   169    1
   174   168   167    2
   175   169   170    1
   176   170   172   am
   177   170   171    2
