@<TRIPOS>MOLECULE
tmp/2r3tA00.pdb
 128 119 0 0 0
SMALL
GASTEIGER

@<TRIPOS>ATOM
      1  N        -25.9440   18.8490  -17.6560 N.3     8  ARG8       -0.1245
      2  CA       -24.8020   18.0980  -17.1460 C.3     8  ARG8        0.1563
      3  C        -25.2520   16.7210  -16.6620 C.2     8  ARG8        0.2260
      4  O        -26.2640   16.6230  -15.9670 O.2     8  ARG8       -0.2867
      5  CB       -24.1020   18.8360  -16.0090 C.3     8  ARG8        0.0307
      6  CG       -23.3610   20.0850  -16.4540 C.3     8  ARG8        0.0489
      7  CD       -22.8590   20.9090  -15.2780 C.3     8  ARG8        0.2205
      8  NE       -21.8510   21.8700  -15.7150 N.pl3   8  ARG8       -0.0865
      9  CZ       -20.8380   22.3400  -15.0050 C.cat   8  ARG8        0.5346
     10  NH1      -20.6310   21.9630  -13.7540 N.pl3   8  ARG8        0.1354
     11  NH2      -20.0040   23.2150  -15.5540 N.pl3   8  ARG8        0.1354
     12  N        -20.2310   14.5910  -11.6160 N.3    23  LEU23      -0.1245
     13  CA       -20.3250   14.7570  -13.0490 C.3    23  LEU23       0.1561
     14  C        -19.6630   13.6430  -13.8290 C.2    23  LEU23       0.2260
     15  O        -18.4620   13.4070  -13.6220 O.2    23  LEU23      -0.2867
     16  CB       -19.6180   16.0670  -13.4080 C.3    23  LEU23       0.0270
     17  CG       -19.6070   16.5190  -14.8590 C.3    23  LEU23       0.0019
     18  CD1      -20.9540   16.3030  -15.5100 C.3    23  LEU23       0.0001
     19  CD2      -19.2320   17.9950  -14.9320 C.3    23  LEU23       0.0001
     20  N        -17.6320   12.5520  -16.6390 N.3    25  ASP25      -0.1239
     21  CA       -16.7570   13.4030  -17.4530 C.3    25  ASP25       0.1674
     22  C        -15.7420   12.6320  -18.3040 C.2    25  ASP25       0.2266
     23  O        -14.6880   12.1760  -17.8520 O.2    25  ASP25      -0.2867
     24  CB       -16.0740   14.3860  -16.5070 C.3    25  ASP25       0.1410
     25  CG       -15.3130   15.4770  -17.2150 C.2    25  ASP25       0.3668
     26  OD1      -14.8360   15.2710  -18.3580 O.co2  25  ASP25      -0.2456
     27  OD2      -15.1890   16.5730  -16.6170 O.co2  25  ASP25      -0.2456
     28  N        -13.8760   13.7610  -20.5610 N.3    27  GLY27      -0.1210
     29  CA       -12.6890   14.5800  -20.7810 C.3    27  GLY27       0.1956
     30  C        -11.6210   14.3600  -19.7250 C.2    27  GLY27       0.2612
     31  O        -10.4290   14.6430  -19.9210 O.2    27  GLY27      -0.2717
     32  N        -12.0460   13.8390  -18.5780 N.am   28  ALA28      -0.1965
     33  CA       -11.1280   13.6250  -17.4610 C.3    28  ALA28       0.1728
     34  C        -10.5080   12.2520  -17.4330 C.2    28  ALA28       0.2616
     35  O        -11.1930   11.2290  -17.4080 O.2    28  ALA28      -0.2715
     36  CB       -11.9140   13.8560  -16.1730 C.3    28  ALA28       0.0334
     37  N         -9.1730   12.1690  -17.4260 N.am   29  ASP29      -0.1957
     38  CA        -8.5670   10.8360  -17.4150 C.3    29  ASP29       0.1840
     39  C         -8.8990   10.1200  -16.1090 C.2    29  ASP29       0.2622
     40  O         -9.2040    8.9320  -16.0700 O.2    29  ASP29      -0.2715
     41  CB        -7.0640   10.9240  -17.5860 C.3    29  ASP29       0.1450
     42  CG        -6.5940   11.5610  -18.8760 C.2    29  ASP29       0.3671
     43  OD1       -7.3010   11.5170  -19.9030 O.co2  29  ASP29      -0.2456
     44  OD2       -5.4690   12.1040  -18.8420 O.co2  29  ASP29      -0.2456
     45  N         -8.8170   10.8710  -15.0170 N.am   30  ASP30      -0.1971
     46  CA        -9.0480   10.3220  -13.6930 C.3    30  ASP30       0.1709
     47  C        -10.1600   11.0620  -12.9610 C.2    30  ASP30       0.2293
     48  O        -10.4600   12.2120  -13.2630 O.2    30  ASP30      -0.2864
     49  CB        -7.7680   10.4080  -12.8570 C.3    30  ASP30       0.1436
     50  CG        -6.8620    9.2110  -13.1070 C.2    30  ASP30       0.3671
     51  OD1       -7.3780    8.0770  -13.1000 O.co2  30  ASP30      -0.2456
     52  OD2       -5.6520    9.4370  -13.3040 O.co2  30  ASP30      -0.2456
     53  N        -11.8420   12.9780   -9.8600 N.3    32  VAL32      -0.1245
     54  CA       -11.4110   14.0210   -8.9370 C.3    32  VAL32       0.1561
     55  C        -12.5690   14.5050   -8.0650 C.2    32  VAL32       0.2260
     56  O        -13.5710   14.9790   -8.5830 O.2    32  VAL32      -0.2867
     57  CB       -10.8390   15.2810   -9.6160 C.3    32  VAL32       0.0252
     58  CG1      -10.0440   16.0920   -8.5890 C.3    32  VAL32       0.0019
     59  CG2      -10.0020   14.9120  -10.8250 C.3    32  VAL32       0.0019
     60  N          0.0450   15.0340   -6.8640 N.3    45  LYS45      -0.1245
     61  CA         0.1390   15.2950   -8.2950 C.3    45  LYS45       0.1561
     62  C         -0.5320   16.6270   -8.5980 C.2    45  LYS45       0.2260
     63  O         -1.2460   17.1730   -7.7570 O.2    45  LYS45      -0.2867
     64  CB        -0.4780   14.1610   -9.1080 C.3    45  LYS45       0.0271
     65  CG        -1.8590   14.3610   -9.6540 C.3    45  LYS45       0.0035
     66  CD        -2.3310   13.2670  -10.6010 C.3    45  LYS45       0.0206
     67  CE        -1.3960   13.1430  -11.7950 C.3    45  LYS45       0.1093
     68  NZ        -2.0120   12.4090  -12.9300 N.3    45  LYS45      -0.1314
     69  N         -3.0520   18.6320  -11.4020 N.3    47  ILE47      -0.1231
     70  CA        -3.8380   18.4890  -12.6210 C.3    47  ILE47       0.1692
     71  C         -4.2790   19.8760  -13.0570 C.2    47  ILE47       0.2593
     72  O         -4.3430   20.8060  -12.2560 O.2    47  ILE47      -0.2718
     73  CB        -5.0680   17.5940  -12.4380 C.3    47  ILE47       0.0266
     74  CG1       -6.0040   18.1670  -11.3820 C.3    47  ILE47       0.0019
     75  CG2       -4.6330   16.1650  -12.1360 C.3    47  ILE47       0.0020
     76  CD1       -7.3030   17.4450  -11.1770 C.3    47  ILE47       0.0001
     77  N         -4.5580   19.9890  -14.3520 N.am   48  GLY48      -0.1942
     78  CA        -4.8520   21.3050  -14.8660 C.3    48  GLY48       0.2014
     79  C         -5.6680   21.3130  -16.1410 C.2    48  GLY48       0.2639
     80  O         -5.8870   20.3160  -16.8100 O.2    48  GLY48      -0.2714
     81  N         -6.1290   22.5060  -16.4700 N.am   49  GLY49      -0.1939
     82  CA        -6.8910   22.7550  -17.6810 C.3    49  GLY49       0.2014
     83  C         -7.0910   24.2670  -17.7760 C.2    49  GLY49       0.2638
     84  O         -6.2350   24.9850  -17.2700 O.2    49  GLY49      -0.2714
     85  N         -8.2020   24.6600  -18.3940 N.am   50  VAL50      -0.1977
     86  CA        -8.4300   26.0950  -18.5510 C.3    50  VAL50       0.1596
     87  C         -8.4220   26.7140  -17.1550 C.2    50  VAL50       0.2287
     88  O         -9.0240   26.1560  -16.2320 O.2    50  VAL50      -0.2864
     89  CB        -9.7300   26.4360  -19.2970 C.3    50  VAL50       0.0276
     90  CG1       -9.9250   25.5790  -20.5500 C.3    50  VAL50       0.0022
     91  CG2      -10.9560   26.2960  -18.4050 C.3    50  VAL50       0.0022
     92  N         -8.5250   11.0870   -7.1930 N.3    76  LEU76      -0.1245
     93  CA        -7.7740   12.2790   -6.8360 C.3    76  LEU76       0.1561
     94  C         -8.6220   13.1760   -5.9500 C.2    76  LEU76       0.2260
     95  O         -9.8050   13.3940   -6.2280 O.2    76  LEU76      -0.2867
     96  CB        -7.3520   13.0440   -8.0860 C.3    76  LEU76       0.0270
     97  CG        -6.7410   12.2110   -9.2150 C.3    76  LEU76       0.0019
     98  CD1       -6.5690   13.0250  -10.4830 C.3    76  LEU76       0.0001
     99  CD2       -5.4160   11.6130   -8.7620 C.3    76  LEU76       0.0001
    100  N        -11.0890   20.8230   -6.0720 N.3    80  THR80      -0.1204
    101  CA       -11.8030   20.9690   -7.3420 C.3    80  THR80       0.1979
    102  C        -13.1350   21.6870   -7.1680 C.2    80  THR80       0.2460
    103  O        -13.8170   21.5540   -6.1510 O.2    80  THR80      -0.2732
    104  CB       -12.0660   19.6000   -8.0060 C.3    80  THR80       0.1783
    105  OG1      -12.8210   19.8370   -9.1940 O.3    80  THR80      -0.2211
    106  CG2      -12.8880   18.7070   -7.0960 C.3    80  THR80       0.0376
    107  N        -13.5470   22.4630   -8.1660 N.am   81  PRO81      -0.2717
    108  CA       -14.7930   23.2250   -8.0180 C.3    81  PRO81       0.1535
    109  C        -15.9940   22.3280   -8.2610 C.2    81  PRO81       0.2598
    110  O        -17.1110   22.6780   -7.9050 O.2    81  PRO81      -0.2715
    111  CB       -14.6300   24.3210   -9.0660 C.3    81  PRO81       0.0310
    112  CG       -13.7040   23.7930  -10.0960 C.3    81  PRO81       0.0237
    113  CD       -12.9130   22.6800   -9.4740 C.3    81  PRO81       0.0939
    114  N        -15.7740   21.1520   -8.8460 N.am   82  VAL82      -0.1978
    115  CA       -16.8390   20.1850   -9.0900 C.3    82  VAL82       0.1596
    116  C        -16.3230   18.7590   -8.9910 C.2    82  VAL82       0.2287
    117  O        -15.2160   18.4280   -9.4110 O.2    82  VAL82      -0.2864
    118  CB       -17.4530   20.4790  -10.4710 C.3    82  VAL82       0.0276
    119  CG1      -16.4620   20.0810  -11.5450 C.3    82  VAL82       0.0022
    120  CG2      -18.7930   19.7810  -10.6420 C.3    82  VAL82       0.0022
    121  N        -15.8930   15.1200  -10.0880 N.3    84  ILE84      -0.1245
    122  CA       -15.7450   14.5190  -11.3970 C.3    84  ILE84       0.1561
    123  C        -15.5750   13.0120  -11.3500 C.2    84  ILE84       0.2260
    124  O        -14.7170   12.5280  -10.6170 O.2    84  ILE84      -0.2867
    125  CB       -14.4790   15.1280  -12.0660 C.3    84  ILE84       0.0252
    126  CG1      -14.5750   16.6490  -12.1890 C.3    84  ILE84       0.0019
    127  CG2      -14.1870   14.4880  -13.4080 C.3    84  ILE84       0.0019
    128  CD1      -15.7360   17.0330  -13.0890 C.3    84  ILE84       0.0001
@<TRIPOS>BOND
     1    29    28    1
     2    29    30    1
     3    90    89    1
     4    31    30    2
     5    43    42   ar
     6    30    32   am
     7    89    86    1
     8    89    91    1
     9    42    44   ar
    10    42    41    1
    11    32    33    1
    12    86    85    1
    13    86    87    1
    14    85    83   am
    15    26    25   ar
    16    22    23    2
    17    22    21    1
    18    83    82    1
    19    83    84    2
    20    82    81    1
    21     1     2    1
    22    41    38    1
    23    33    34    1
    24    33    36    1
    25    21    20    1
    26    21    24    1
    27    34    37   am
    28    34    35    2
    29    37    38    1
    30    38    39    1
    31    25    27   ar
    32    25    24    1
    33    87    88    2
    34     2     3    1
    35     2     5    1
    36    80    79    2
    37     3     4    2
    38    81    79   am
    39     6     5    1
    40     6     7    1
    41    79    78    1
    42    39    40    2
    43    39    45   am
    44     8     7    1
    45     8     9    2
    46    11     9    1
    47    18    17    1
    48    45    46    1
    49     9    10    1
    50    19    17    1
    51    78    77    1
    52    17    16    1
    53    77    71   am
    54    14    15    2
    55    14    13    1
    56    46    47    1
    57    46    49    1
    58   127   125    1
    59    16    13    1
    60    52    50   ar
    61    48    47    2
    62    50    51   ar
    63    50    49    1
    64   128   126    1
    65    71    70    1
    66    71    72    2
    67    13    12    1
    68    68    67    1
    69    70    73    1
    70    70    69    1
    71    73    75    1
    72    73    74    1
    73   126   125    1
    74   125   122    1
    75    67    66    1
    76   119   118    1
    77   122   123    1
    78   122   121    1
    79    74    76    1
    80   123   124    2
    81    59    57    1
    82   120   118    1
    83    66    65    1
    84    98    97    1
    85   118   115    1
    86   112   113    1
    87   112   111    1
    88    53    54    1
    89    65    64    1
    90    57    54    1
    91    57    58    1
    92   113   107    1
    93   117   116    2
    94    97    99    1
    95    97    96    1
    96   105   104    1
    97    64    61    1
    98   115   116    1
    99   115   114    1
   100   111   108    1
   101    54    55    1
   102   114   109   am
   103    62    61    1
   104    62    63    2
   105    56    55    2
   106    61    60    1
   107   109   108    1
   108   109   110    2
   109   107   108    1
   110   107   102   am
   111    96    93    1
   112   104   101    1
   113   104   106    1
   114   101   102    1
   115   101   100    1
   116    92    93    1
   117   102   103    2
   118    93    94    1
   119    95    94    2
