@<TRIPOS>MOLECULE
tmp/2r3yB00.pdb
 167 160 0 0 0
SMALL
GASTEIGER

@<TRIPOS>ATOM
      1  N         65.4780  -32.7890   16.4690 N.3    77  LEU77      -0.1245
      2  CA        66.8010  -32.3880   16.0370 C.3    77  LEU77       0.1561
      3  C         66.7720  -31.4080   14.8810 C.2    77  LEU77       0.2260
      4  O         67.4490  -30.3810   14.9320 O.2    77  LEU77      -0.2867
      5  CB        67.6390  -33.5950   15.6350 C.3    77  LEU77       0.0270
      6  CG        68.1370  -34.4990   16.7570 C.3    77  LEU77       0.0019
      7  CD1       69.2350  -35.3960   16.1940 C.3    77  LEU77       0.0001
      8  CD2       68.6790  -33.6670   17.9110 C.3    77  LEU77       0.0001
      9  N         76.5620  -25.8970   20.3780 N.3   137  THR137     -0.1203
     10  CA        76.4790  -27.1060   21.2030 C.3   137  THR137      0.1994
     11  C         75.2060  -27.8560   20.8120 C.2   137  THR137      0.2618
     12  O         74.2670  -28.0010   21.5990 O.2   137  THR137     -0.2717
     13  CB        76.4540  -26.7690   22.7180 C.3   137  THR137      0.1784
     14  OG1       77.6490  -26.0580   23.0730 O.3   137  THR137     -0.2211
     15  CG2       76.3760  -28.0490   23.5520 C.3   137  THR137      0.0376
     16  N         75.2030  -28.3230   19.5700 N.am  138  GLY138     -0.1942
     17  CA        74.0710  -29.0310   19.0070 C.3   138  GLY138      0.2014
     18  C         74.0300  -28.5280   17.5820 C.2   138  GLY138      0.2639
     19  O         73.0430  -27.9490   17.1320 O.2   138  GLY138     -0.2714
     20  N         75.1370  -28.7450   16.8800 N.am  139  ARG139     -0.1963
     21  CA        75.2930  -28.2960   15.5060 C.3   139  ARG139      0.1729
     22  C         74.3260  -28.9140   14.5110 C.2   139  ARG139      0.2616
     23  O         73.7170  -29.9560   14.7630 O.2   139  ARG139     -0.2715
     24  CB        76.7350  -28.5360   15.0340 C.3   139  ARG139      0.0348
     25  CG        77.1360  -30.0060   14.8760 C.3   139  ARG139      0.0492
     26  CD        76.8470  -30.5600   13.4710 C.3   139  ARG139      0.2205
     27  NE        77.5760  -29.8470   12.4190 N.pl3 139  ARG139     -0.0865
     28  CZ        77.7190  -30.2850   11.1680 C.cat 139  ARG139      0.5346
     29  NH1       77.1870  -31.4420   10.7990 N.pl3 139  ARG139      0.1354
     30  NH2       78.3910  -29.5610   10.2810 N.pl3 139  ARG139      0.1354
     31  N         74.2010  -28.2410   13.3730 N.am  140  GLN140     -0.1977
     32  CA        73.3360  -28.6750   12.2910 C.3   140  GLN140      0.1601
     33  C         73.8800  -28.0460   11.0110 C.2   140  GLN140      0.2287
     34  O         74.9770  -27.4800   10.9940 O.2   140  GLN140     -0.2864
     35  CB        71.8960  -28.2050   12.5320 C.3   140  GLN140      0.0394
     36  CG        70.8580  -28.9050   11.6570 C.3   140  GLN140      0.0908
     37  CD        70.5610  -30.3230   12.1220 C.2   140  GLN140      0.2608
     38  OE1       70.3070  -31.2150   11.3120 O.2   140  GLN140     -0.2717
     39  NE2       70.5770  -30.5320   13.4340 N.am  140  GLN140     -0.0878
     40  N         67.4260  -43.0460   14.1140 N.3   209  ARG209     -0.1231
     41  CA        68.8660  -42.8190   14.0880 C.3   209  ARG209      0.1694
     42  C         69.6080  -43.9210   14.8190 C.2   209  ARG209      0.2593
     43  O         69.1000  -44.4860   15.7810 O.2   209  ARG209     -0.2718
     44  CB        69.2130  -41.4600   14.7090 C.3   209  ARG209      0.0321
     45  CG        68.6570  -40.2830   13.9240 C.3   209  ARG209      0.0489
     46  CD        69.1990  -38.9410   14.3980 C.3   209  ARG209      0.2205
     47  NE        68.7290  -37.8430   13.5540 N.pl3 209  ARG209     -0.0865
     48  CZ        67.5400  -37.2650   13.6660 C.cat 209  ARG209      0.5346
     49  NH1       66.6910  -37.6720   14.5960 N.pl3 209  ARG209      0.1354
     50  NH2       67.2010  -36.2820   12.8450 N.pl3 209  ARG209      0.1354
     51  N         70.8130  -44.2220   14.3510 N.am  210  GLY210     -0.1942
     52  CA        71.6160  -45.2540   14.9770 C.3   210  GLY210      0.2014
     53  C         72.5010  -44.6990   16.0770 C.2   210  GLY210      0.2639
     54  O         73.4040  -43.8990   15.8220 O.2   210  GLY210     -0.2714
     55  N         72.2350  -45.1270   17.3050 N.am  211  TYR211     -0.1959
     56  CA        72.9940  -44.6880   18.4700 C.3   211  TYR211      0.1771
     57  C         73.8350  -45.8390   19.0130 C.2   211  TYR211      0.2619
     58  O         73.4440  -47.0050   18.9100 O.2   211  TYR211     -0.2715
     59  CB        72.0360  -44.1990   19.5610 C.3   211  TYR211      0.0574
     60  CG        72.6800  -44.0010   20.9170 C.ar  211  TYR211     -0.0198
     61  CD1       73.5500  -42.9380   21.1510 C.ar  211  TYR211     -0.0009
     62  CD2       72.4360  -44.8940   21.9610 C.ar  211  TYR211     -0.0009
     63  CE1       74.1620  -42.7680   22.3920 C.ar  211  TYR211      0.0417
     64  CE2       73.0420  -44.7350   23.2040 C.ar  211  TYR211      0.0417
     65  CZ        73.9040  -43.6710   23.4120 C.ar  211  TYR211      0.1957
     66  OH        74.5100  -43.5100   24.6370 O.3   211  TYR211     -0.2866
     67  N         74.9900  -45.5110   19.5860 N.am  212  ILE212     -0.1963
     68  CA        75.8630  -46.5300   20.1570 C.3   212  ILE212      0.1730
     69  C         76.1650  -46.2400   21.6290 C.2   212  ILE212      0.2656
     70  O         75.3730  -46.5990   22.4990 O.2   212  ILE212     -0.2711
     71  CB        77.1850  -46.6650   19.3640 C.3   212  ILE212      0.0290
     72  CG1       76.8790  -47.0260   17.9050 C.3   212  ILE212      0.0022
     73  CG2       78.0510  -47.7580   19.9820 C.3   212  ILE212      0.0023
     74  CD1       78.1100  -47.2490   17.0430 C.3   212  ILE212      0.0001
     75  N         77.2860  -45.5880   21.9200 N.am  213  GLY213     -0.1716
     76  CA        77.5900  -45.3180   23.3130 C.2   213  GLY213      0.1480
     77  C         78.7040  -44.3350   23.6050 C.2   213  GLY213      0.2820
     78  O         79.6710  -44.6780   24.2850 O.2   213  GLY213     -0.2669
     79  N         78.5690  -43.1120   23.1020 N.am  214  ILE214     -0.1929
     80  CA        79.5660  -42.0680   23.3260 C.3   214  ILE214      0.1730
     81  C         79.0010  -40.6680   23.0960 C.2   214  ILE214      0.2617
     82  O         78.0420  -40.4850   22.3450 O.2   214  ILE214     -0.2715
     83  CB        80.8170  -42.2430   22.4150 C.3   214  ILE214      0.0290
     84  CG1       80.3970  -42.5810   20.9800 C.3   214  ILE214      0.0022
     85  CG2       81.7430  -43.3010   22.9980 C.3   214  ILE214      0.0023
     86  CD1       79.9650  -44.0240   20.7670 C.3   214  ILE214      0.0001
     87  N         79.6060  -39.6830   23.7530 N.am  215  GLY215     -0.1940
     88  CA        79.1670  -38.3070   23.6110 C.3   215  GLY215      0.2014
     89  C         80.3010  -37.3400   23.8970 C.2   215  GLY215      0.2639
     90  O         81.3260  -37.7330   24.4550 O.2   215  GLY215     -0.2714
     91  N         80.1260  -36.0790   23.5120 N.am  216  GLY216     -0.1954
     92  CA        81.1560  -35.0790   23.7500 C.3   216  GLY216      0.1869
     93  C         82.3850  -35.2310   22.8720 C.2   216  GLY216      0.2309
     94  O         83.4440  -34.6670   23.1610 O.2   216  GLY216     -0.2863
     95  N         89.0380  -38.6040   15.5100 N.3   217  ILE217     -0.1231
     96  CA        88.8600  -37.6670   16.6140 C.3   217  ILE217      0.1692
     97  C         88.7870  -38.4200   17.9420 C.2   217  ILE217      0.2591
     98  O         88.5850  -39.6330   17.9650 O.2   217  ILE217     -0.2718
     99  CB        87.5760  -36.8250   16.4250 C.3   217  ILE217      0.0266
    100  CG1       87.5590  -36.2110   15.0220 C.3   217  ILE217      0.0019
    101  CG2       87.5110  -35.7180   17.4690 C.3   217  ILE217      0.0020
    102  CD1       88.7600  -35.3400   14.7070 C.3   217  ILE217      0.0001
    103  N         88.9470  -37.6920   19.0430 N.am  218  VAL218     -0.1980
    104  CA        88.9320  -38.2760   20.3830 C.3   218  VAL218      0.1595
    105  C         87.5430  -38.7070   20.8550 C.2   218  VAL218      0.2287
    106  O         86.5390  -38.4400   20.1960 O.2   218  VAL218     -0.2864
    107  CB        89.5140  -37.2780   21.4130 C.3   218  VAL218      0.0276
    108  CG1       89.8420  -37.9960   22.7140 C.3   218  VAL218      0.0022
    109  CG2       90.7550  -36.6020   20.8420 C.3   218  VAL218      0.0022
    110  N         83.5600  -37.9400   27.4800 N.3   221  GLU221     -0.1231
    111  CA        82.5040  -37.0280   27.9150 C.3   221  GLU221      0.1699
    112  C         82.8890  -36.1750   29.1240 C.2   221  GLU221      0.2592
    113  O         83.6340  -36.6170   29.9990 O.2   221  GLU221     -0.2718
    114  CB        81.2360  -37.8240   28.2470 C.3   221  GLU221      0.0402
    115  CG        80.2320  -37.9600   27.1070 C.3   221  GLU221      0.1161
    116  CD        79.4060  -36.7000   26.8930 C.2   221  GLU221      0.3649
    117  OE1       80.0000  -35.6230   26.6680 O.co2 221  GLU221     -0.2457
    118  OE2       78.1590  -36.7870   26.9460 O.co2 221  GLU221     -0.2457
    119  N         82.3740  -34.9470   29.1590 N.am  222  VAL222     -0.1980
    120  CA        82.6270  -34.0310   30.2670 C.3   222  VAL222      0.1595
    121  C         81.5260  -34.2500   31.3070 C.2   222  VAL222      0.2287
    122  O         81.3610  -33.4690   32.2460 O.2   222  VAL222     -0.2864
    123  CB        82.6130  -32.5550   29.7940 C.3   222  VAL222      0.0276
    124  CG1       83.7650  -32.3080   28.8320 C.3   222  VAL222      0.0022
    125  CG2       81.2870  -32.2320   29.1220 C.3   222  VAL222      0.0022
    126  N         88.7000  -43.6470   17.5450 N.3   239  ILE239     -0.1245
    127  CA        88.4850  -44.8530   16.7520 C.3   239  ILE239      0.1561
    128  C         88.7700  -44.5490   15.2820 C.2   239  ILE239      0.2260
    129  O         88.9910  -43.3920   14.9160 O.2   239  ILE239     -0.2867
    130  CB        87.0330  -45.3630   16.9060 C.3   239  ILE239      0.0252
    131  CG1       86.8800  -46.7330   16.2390 C.3   239  ILE239      0.0019
    132  CG2       86.0650  -44.3570   16.3040 C.3   239  ILE239      0.0019
    133  CD1       85.5260  -47.3770   16.4570 C.3   239  ILE239      0.0001
    134  N         81.7280  -39.6090   10.0700 N.3   248  THR248     -0.1203
    135  CA        81.3950  -40.8460   10.7670 C.3   248  THR248      0.1994
    136  C         80.2200  -40.6090   11.7110 C.2   248  THR248      0.2617
    137  O         79.6100  -41.5520   12.2130 O.2   248  THR248     -0.2717
    138  CB        82.6050  -41.3660   11.5760 C.3   248  THR248      0.1784
    139  OG1       83.7380  -41.4880   10.7060 O.3   248  THR248     -0.2211
    140  CG2       82.3040  -42.7290   12.1880 C.3   248  THR248      0.0376
    141  N         79.9080  -39.3380   11.9430 N.am  249  MET249     -0.1979
    142  CA        78.8060  -38.9550   12.8170 C.3   249  MET249      0.1605
    143  C         77.4660  -39.3090   12.1770 C.2   249  MET249      0.2287
    144  O         76.6090  -39.9350   12.8030 O.2   249  MET249     -0.2864
    145  CB        78.8640  -37.4470   13.0880 C.3   249  MET249      0.0413
    146  CG        77.7240  -36.8970   13.9340 C.3   249  MET249      0.0598
    147  SD        77.8020  -37.3800   15.6690 S.3   249  MET249     -0.1393
    148  CE        76.7850  -38.8520   15.6480 C.3   249  MET249      0.0692
    149  N         76.6290  -43.4650   11.4800 N.3   252  VAL252     -0.1245
    150  CA        76.1640  -44.3410   12.5520 C.3   252  VAL252      0.1561
    151  C         74.6670  -44.1880   12.7870 C.2   252  VAL252      0.2260
    152  O         73.9990  -45.1340   13.2040 O.2   252  VAL252     -0.2867
    153  CB        76.8990  -44.0540   13.8790 C.3   252  VAL252      0.0252
    154  CG1       76.3930  -44.9920   14.9730 C.3   252  VAL252      0.0019
    155  CG2       78.3950  -44.2220   13.6850 C.3   252  VAL252      0.0019
    156  N         68.7400  -43.8990   18.6570 N.3   273  TYR273     -0.1241
    157  CA        69.0810  -42.6750   19.3710 C.3   273  TYR273      0.1605
    158  C         67.9090  -42.2340   20.2450 C.2   273  TYR273      0.2264
    159  O         66.8530  -41.8610   19.7370 O.2   273  TYR273     -0.2867
    160  CB        69.4340  -41.5750   18.3660 C.3   273  TYR273      0.0534
    161  CG        69.7570  -40.2340   18.9870 C.ar  273  TYR273     -0.0201
    162  CD1       70.9060  -40.0560   19.7560 C.ar  273  TYR273     -0.0009
    163  CD2       68.9100  -39.1410   18.8040 C.ar  273  TYR273     -0.0009
    164  CE1       71.2030  -38.8160   20.3290 C.ar  273  TYR273      0.0417
    165  CE2       69.1950  -37.9000   19.3710 C.ar  273  TYR273      0.0417
    166  CZ        70.3410  -37.7420   20.1320 C.ar  273  TYR273      0.1957
    167  OH        70.6200  -36.5130   20.6920 O.3   273  TYR273     -0.2866
@<TRIPOS>BOND
     1   134   135    1
     2    30    28    1
     3   139   138    1
     4   135   138    1
     5   135   136    1
     6    29    28    1
     7    34    33    2
     8    33    32    1
     9    28    27    2
    10    38    37    2
    11   149   150    1
    12   138   140    1
    13    36    37    1
    14    36    35    1
    15   136   141   am
    16   136   137    2
    17   141   142    1
    18    37    39   am
    19   143   144    2
    20   143   142    1
    21    32    35    1
    22    32    31    1
    23    27    26    1
    24   150   151    1
    25   150   153    1
    26   151   152    2
    27   142   145    1
    28    50    48    1
    29   145   146    1
    30    31    22   am
    31    26    25    1
    32    47    48    2
    33    47    46    1
    34    48    49    1
    35   155   153    1
    36   153   154    1
    37    45    46    1
    38    45    44    1
    39   146   147    1
    40    41    40    1
    41    41    44    1
    42    41    42    1
    43    51    42   am
    44    51    52    1
    45    22    23    2
    46    22    21    1
    47   102   100    1
    48    42    43    2
    49    25    24    1
    50     3     4    2
    51     3     2    1
    52   129   128    2
    53    52    53    1
    54   100    99    1
    55    24    21    1
    56   128   127    1
    57    21    20    1
    58    95    96    1
    59     5     2    1
    60     5     6    1
    61   148   147    1
    62    54    53    2
    63     2     1    1
    64    53    55   am
    65     7     6    1
    66   131   133    1
    67   131   130    1
    68   132   130    1
    69    99    96    1
    70    99   101    1
    71    96    97    1
    72   127   130    1
    73   127   126    1
    74     6     8    1
    75    20    18   am
    76    74    72    1
    77    19    18    2
    78    55    56    1
    79    18    17    1
    80    72    71    1
    81    97    98    2
    82    97   103   am
    83   160   161    1
    84   160   157    1
    85    56    57    1
    86    56    59    1
    87   156   157    1
    88   163   161   ar
    89   163   165   ar
    90    58    57    2
    91   161   162   ar
    92    17    16    1
    93    57    67   am
    94   103   104    1
    95    71    73    1
    96    71    68    1
    97   165   166   ar
    98   157   158    1
    99    59    60    1
   100    16    11   am
   101    67    68    1
   102   159   158    2
   103   162   164   ar
   104   166   164   ar
   105   166   167    1
   106    68    69    1
   107   106   105    2
   108     9    10    1
   109   104   105    1
   110   104   107    1
   111    86    84    1
   112    11    10    1
   113    11    12    2
   114   109   107    1
   115    60    61   ar
   116    60    62   ar
   117    84    83    1
   118    61    63   ar
   119    10    13    1
   120   107   108    1
   121    69    75    1
   122    69    70    2
   123    75    76    2
   124    62    64   ar
   125    82    81    2
   126    63    65   ar
   127    83    85    1
   128    83    80    1
   129    13    14    1
   130    13    15    1
   131    93    94    2
   132    93    92    1
   133    81    80    1
   134    81    87   am
   135    79    80    1
   136    79    77   am
   137    64    65   ar
   138    76    77    1
   139    65    66    1
   140    91    92    1
   141    91    89   am
   142    77    78    2
   143    88    87    1
   144    88    89    1
   145    89    90    2
   146   117   116   ar
   147   116   118   ar
   148   116   115    1
   149   115   114    1
   150   110   111    1
   151   111   114    1
   152   111   112    1
   153   124   123    1
   154   125   123    1
   155   112   119   am
   156   112   113    2
   157   119   120    1
   158   123   120    1
   159   120   121    1
   160   121   122    2
