@<TRIPOS>MOLECULE
tmp/2r42A00.pdb
 172 164 0 0 0
SMALL
GASTEIGER

@<TRIPOS>ATOM
      1  N         28.4410   23.1260   12.2420 N.3    13  LYS13      -0.1245
      2  CA        28.5450   22.0600   11.2560 C.3    13  LYS13       0.1561
      3  C         29.3780   20.8850   11.7450 C.2    13  LYS13       0.2260
      4  O         30.1970   21.0320   12.6440 O.2    13  LYS13      -0.2867
      5  CB        29.1140   22.6370    9.9430 C.3    13  LYS13       0.0271
      6  CG        30.1970   21.8350    9.2420 C.3    13  LYS13       0.0035
      7  CD        31.5420   22.4340    9.5560 C.3    13  LYS13       0.0206
      8  CE        32.6530   21.8750    8.6680 C.3    13  LYS13       0.1093
      9  NZ        33.9830   22.5290    8.9630 N.3    13  LYS13      -0.1314
     10  N         24.5340   29.8300   17.3480 N.3    37  THR37      -0.1218
     11  CA        25.2060   31.0740   17.6990 C.3    37  THR37       0.1862
     12  C         24.0970   32.1150   17.6430 C.2    37  THR37       0.2287
     13  O         23.3610   32.1880   16.6600 O.2    37  THR37      -0.2866
     14  CB        26.2900   31.4480   16.6810 C.3    37  THR37       0.1770
     15  OG1       27.4050   30.5770   16.8520 O.3    37  THR37      -0.2211
     16  CG2       26.7510   32.8810   16.8740 C.3    37  THR37       0.0375
     17  N         31.3600   40.3410   22.6730 N.3    53  LEU53      -0.1245
     18  CA        31.5350   38.8990   22.6010 C.3    53  LEU53       0.1561
     19  C         31.8220   38.3460   23.9960 C.2    53  LEU53       0.2260
     20  O         32.9700   38.0870   24.3460 O.2    53  LEU53      -0.2867
     21  CB        32.6920   38.5730   21.6540 C.3    53  LEU53       0.0270
     22  CG        32.5680   39.2110   20.2680 C.3    53  LEU53       0.0019
     23  CD1       33.8370   38.9840   19.4500 C.3    53  LEU53       0.0001
     24  CD2       31.3540   38.6230   19.5700 C.3    53  LEU53       0.0001
     25  N         31.7750   35.5150   25.4920 N.3    55  ASN55      -0.1225
     26  CA        32.6820   34.3840   25.5640 C.3    55  ASN55       0.1785
     27  C         34.1190   34.8910   25.6210 C.2    55  ASN55       0.2597
     28  O         34.7370   34.8880   26.6860 O.2    55  ASN55      -0.2718
     29  CB        32.4930   33.4570   24.3620 C.3    55  ASN55       0.1169
     30  CG        31.0490   33.0020   24.1880 C.2    55  ASN55       0.2627
     31  OD1       30.2200   33.7170   23.6220 O.2    55  ASN55      -0.2716
     32  ND2       30.7440   31.8110   24.6780 N.am   55  ASN55      -0.0877
     33  N         34.6410   35.3450   24.4840 N.am   56  VAL56      -0.1980
     34  CA        36.0070   35.8650   24.4230 C.3    56  VAL56       0.1595
     35  C         36.1230   37.1650   25.2280 C.2    56  VAL56       0.2287
     36  O         37.0180   37.9830   24.9990 O.2    56  VAL56      -0.2864
     37  CB        36.4360   36.1230   22.9650 C.3    56  VAL56       0.0276
     38  CG1       37.9230   36.4820   22.9060 C.3    56  VAL56       0.0022
     39  CG2       36.1480   34.8910   22.1230 C.3    56  VAL56       0.0022
     40  N         43.5090   36.8670   18.7540 N.3    92  ASN92      -0.1225
     41  CA        42.8910   35.6530   18.2170 C.3    92  ASN92       0.1785
     42  C         41.5800   35.9920   17.5480 C.2    92  ASN92       0.2597
     43  O         41.4180   35.8010   16.3320 O.2    92  ASN92      -0.2718
     44  CB        42.6490   34.6530   19.3310 C.3    92  ASN92       0.1169
     45  CG        42.3890   33.2530   18.7990 C.2    92  ASN92       0.2627
     46  OD1       42.1820   33.0330   17.6070 O.2    92  ASN92      -0.2716
     47  ND2       42.4020   32.2780   19.7100 N.am   92  ASN92      -0.0877
     48  N         40.6460   36.4870   18.3600 N.am   93  GLU93      -0.1979
     49  CA        39.3180   36.8930   17.8950 C.3    93  GLU93       0.1602
     50  C         39.4130   38.3340   17.3460 C.2    93  GLU93       0.2287
     51  O         38.4040   39.0140   17.1040 O.2    93  GLU93      -0.2864
     52  CB        38.3180   36.8130   19.0550 C.3    93  GLU93       0.0415
     53  CG        38.3720   35.4340   19.7010 C.3    93  GLU93       0.1163
     54  CD        37.6800   34.3460   18.9250 C.2    93  GLU93       0.3649
     55  OE1       37.1290   34.6580   17.8670 O.co2  93  GLU93      -0.2457
     56  OE2       37.6840   33.1610   19.3790 O.co2  93  GLU93      -0.2457
     57  N         37.8600   38.8040   14.1150 N.3    96  SER96      -0.1217
     58  CA        36.4130   38.7250   14.2450 C.3    96  SER96       0.1889
     59  C         35.8340   40.1550   14.1840 C.2    96  SER96       0.2288
     60  O         34.8640   40.3960   13.4610 O.2    96  SER96      -0.2866
     61  CB        36.0420   37.9810   15.5670 C.3    96  SER96       0.2089
     62  OG        36.4510   36.6000   15.5480 O.3    96  SER96      -0.2183
     63  N         26.8680   38.8560   20.7880 N.3   121  VAL121     -0.1245
     64  CA        27.0030   37.5030   20.2550 C.3   121  VAL121      0.1561
     65  C         27.3750   36.4850   21.3330 C.2   121  VAL121      0.2260
     66  O         28.3040   36.6820   22.1120 O.2   121  VAL121     -0.2867
     67  CB        28.0570   37.4380   19.1370 C.3   121  VAL121      0.0252
     68  CG1       28.0710   36.0480   18.5310 C.3   121  VAL121      0.0019
     69  CG2       27.7530   38.4690   18.0750 C.3   121  VAL121      0.0019
     70  N         27.3480   32.0150   21.6540 N.3   123  SER123     -0.1217
     71  CA        27.0450   30.7250   21.0360 C.3   123  SER123      0.1889
     72  C         27.1860   29.5340   21.9650 C.2   123  SER123      0.2288
     73  O         27.9590   29.5620   22.9180 O.2   123  SER123     -0.2866
     74  CB        27.9290   30.4950   19.8040 C.3   123  SER123      0.2089
     75  OG        29.3030   30.5590   20.1290 O.3   123  SER123     -0.2183
     76  N         28.1480   26.9210   20.7630 N.3   125  LEU125     -0.1231
     77  CA        29.2000   26.2100   20.0640 C.3   125  LEU125      0.1678
     78  C         30.5240   26.3210   20.7520 C.2   125  LEU125      0.2434
     79  O         30.9220   27.3960   21.1680 O.2   125  LEU125     -0.2733
     80  CB        29.3640   26.7320   18.6440 C.3   125  LEU125      0.0284
     81  CG        28.5150   26.1300   17.5320 C.3   125  LEU125      0.0019
     82  CD1       28.6570   26.9930   16.2910 C.3   125  LEU125      0.0001
     83  CD2       28.9500   24.6970   17.2520 C.3   125  LEU125      0.0001
     84  N         31.2180   25.1850   20.8980 N.am  126  PRO126     -0.2718
     85  CA        32.5330   25.1480   21.5320 C.3   126  PRO126      0.1520
     86  C         33.4990   25.7220   20.5140 C.2   126  PRO126      0.2440
     87  O         33.4740   25.3550   19.3370 O.2   126  PRO126     -0.2731
     88  CB        32.7580   23.6590   21.7470 C.3   126  PRO126      0.0310
     89  CG        31.3760   23.1330   21.9220 C.3   126  PRO126      0.0237
     90  CD        30.6320   23.8420   20.8340 C.3   126  PRO126      0.0939
     91  N         34.3480   26.6580   20.9300 N.am  127  PRO127     -0.2716
     92  CA        35.2650   27.1940   19.9250 C.3   127  PRO127      0.1536
     93  C         36.4640   26.2730   19.6750 C.2   127  PRO127      0.2599
     94  O         36.8750   25.5130   20.5530 O.2   127  PRO127     -0.2715
     95  CB        35.6610   28.5410   20.5170 C.3   127  PRO127      0.0310
     96  CG        35.6620   28.2500   22.0070 C.3   127  PRO127      0.0237
     97  CD        34.4030   27.4270   22.1870 C.3   127  PRO127      0.0939
     98  N         36.9950   26.3350   18.4570 N.am  128  GLY128     -0.1941
     99  CA        38.1560   25.5340   18.0970 C.3   128  GLY128      0.2014
    100  C         38.0020   24.0350   17.9070 C.2   128  GLY128      0.2639
    101  O         39.0020   23.3440   17.6830 O.2   128  GLY128     -0.2714
    102  N         36.7790   23.5160   17.9850 N.am  129  ALA129     -0.1963
    103  CA        36.5760   22.0800   17.8150 C.3   129  ALA129      0.1728
    104  C         36.2230   21.7240   16.3720 C.2   129  ALA129      0.2617
    105  O         35.8180   20.5920   16.0840 O.2   129  ALA129     -0.2715
    106  CB        35.4900   21.5890   18.7640 C.3   129  ALA129      0.0334
    107  N         36.3790   22.6920   15.4710 N.am  130  GLY130     -0.1940
    108  CA        36.0790   22.4660   14.0650 C.3   130  GLY130      0.2014
    109  C         34.5950   22.3500   13.7450 C.2   130  GLY130      0.2639
    110  O         34.2080   21.7750   12.7170 O.2   130  GLY130     -0.2714
    111  N         33.7550   22.8910   14.6270 N.am  131  LEU131     -0.1963
    112  CA        32.3140   22.8480   14.4300 C.3   131  LEU131      0.1728
    113  C         31.8170   24.0620   13.6400 C.2   131  LEU131      0.2617
    114  O         30.6240   24.3700   13.6410 O.2   131  LEU131     -0.2715
    115  CB        31.6200   22.7580   15.7910 C.3   131  LEU131      0.0311
    116  CG        31.4800   21.3800   16.4770 C.3   131  LEU131      0.0022
    117  CD1       32.4110   20.3400   15.8480 C.3   131  LEU131      0.0001
    118  CD2       31.7460   21.5340   17.9750 C.3   131  LEU131      0.0001
    119  N         32.7510   24.7460   12.9740 N.am  132  GLY132     -0.1940
    120  CA        32.4310   25.9070   12.1550 C.3   132  GLY132      0.2014
    121  C         31.8700   27.1540   12.8260 C.2   132  GLY132      0.2640
    122  O         31.1650   27.9380   12.1910 O.2   132  GLY132     -0.2714
    123  N         32.2150   27.3710   14.0900 N.am  133  SER133     -0.1935
    124  CA        31.7020   28.5020   14.8380 C.3   133  SER133      0.2055
    125  C         31.8570   29.8840   14.2150 C.2   133  SER133      0.2643
    126  O         30.9720   30.7270   14.3850 O.2   133  SER133     -0.2714
    127  CB        32.2860   28.5060   16.2500 C.3   133  SER133      0.2130
    128  OG        33.6830   28.6790   16.2140 O.3   133  SER133     -0.2179
    129  N         32.9530   30.1350   13.5050 N.am  134  SER134     -0.1949
    130  CA        33.1440   31.4540   12.9010 C.3   134  SER134      0.1924
    131  C         32.2690   31.6780   11.6710 C.2   134  SER134      0.2314
    132  O         32.0500   32.8120   11.2530 O.2   134  SER134     -0.2863
    133  CB        34.6160   31.6780   12.5370 C.3   134  SER134      0.2116
    134  OG        34.8930   31.2690   11.2090 O.3   134  SER134     -0.2180
    135  N         28.9930   32.5290   13.1310 N.3   137  TYR137     -0.1241
    136  CA        29.1410   33.8930   13.6080 C.3   137  TYR137      0.1605
    137  C         28.9990   34.9030   12.4610 C.2   137  TYR137      0.2264
    138  O         28.3010   35.9090   12.5920 O.2   137  TYR137     -0.2867
    139  CB        30.5030   34.0460   14.2870 C.3   137  TYR137      0.0534
    140  CG        31.0160   35.4680   14.3820 C.ar  137  TYR137     -0.0201
    141  CD1       31.8690   35.9880   13.4110 C.ar  137  TYR137     -0.0009
    142  CD2       30.6630   36.2810   15.4510 C.ar  137  TYR137     -0.0009
    143  CE1       32.3690   37.2840   13.5060 C.ar  137  TYR137      0.0417
    144  CE2       31.1510   37.5780   15.5610 C.ar  137  TYR137      0.0417
    145  CZ        32.0060   38.0770   14.5870 C.ar  137  TYR137      0.1957
    146  OH        32.5060   39.3550   14.7260 O.3   137  TYR137     -0.2866
    147  N         38.6300   36.3240    7.8970 N.3   184  ILE184     -0.1231
    148  CA        39.0830   35.5470    9.0420 C.3   184  ILE184      0.1692
    149  C         39.8270   34.2630    8.6630 C.2   184  ILE184      0.2592
    150  O         40.7410   33.8280    9.3720 O.2   184  ILE184     -0.2718
    151  CB        37.9100   35.1910    9.9640 C.3   184  ILE184      0.0266
    152  CG1       38.3890   34.2320   11.0540 C.3   184  ILE184      0.0019
    153  CG2       36.7880   34.5840    9.1590 C.3   184  ILE184      0.0020
    154  CD1       39.2260   34.8780   12.1560 C.3   184  ILE184      0.0001
    155  N         39.4470   33.6570    7.5460 N.am  185  HIS185     -0.1976
    156  CA        40.1030   32.4300    7.1280 C.3   185  HIS185      0.1656
    157  C         40.8600   32.5810    5.8190 C.2   185  HIS185      0.2291
    158  O         41.5850   31.6750    5.4040 O.2   185  HIS185     -0.2864
    159  CB        39.0840   31.2850    7.0360 C.3   185  HIS185      0.0771
    160  CG        38.6390   30.7680    8.3730 C.ar  185  HIS185      0.0820
    161  ND1       37.8040   31.4760    9.2070 N.ar  185  HIS185     -0.2267
    162  CD2       38.9430   29.6240    9.0330 C.ar  185  HIS185      0.1154
    163  CE1       37.6120   30.7950   10.3220 C.ar  185  HIS185      0.1986
    164  NE2       38.2920   29.6670   10.2430 N.ar  185  HIS185     -0.2212
    165  N         31.2430   25.7710    5.4390 N.3   192  ASP192     -0.1239
    166  CA        30.8300   26.2090    6.7660 C.3   192  ASP192      0.1674
    167  C         29.7140   27.2350    6.7440 C.2   192  ASP192      0.2266
    168  O         28.6760   27.0360    7.3610 O.2   192  ASP192     -0.2867
    169  CB        32.0110   26.7950    7.5230 C.3   192  ASP192      0.1410
    170  CG        33.0670   25.7630    7.8200 C.2   192  ASP192      0.3668
    171  OD1       34.0210   26.0880    8.5610 O.co2 192  ASP192     -0.2456
    172  OD2       32.9410   24.6270    7.3110 O.co2 192  ASP192     -0.2456
@<TRIPOS>BOND
     1   158   157    2
     2   165   166    1
     3   157   156    1
     4   167   166    1
     5   167   168    2
     6   166   169    1
     7   159   156    1
     8   159   160    1
     9   156   155    1
    10   172   170   ar
    11   169   170    1
    12   155   149   am
    13   170   171   ar
    14   147   148    1
    15   160   162   ar
    16   160   161   ar
    17   149   148    1
    18   149   150    2
    19     8     9    1
    20     8     7    1
    21   162   164   ar
    22   148   151    1
    23   153   151    1
    24   161   163   ar
    25     6     7    1
    26     6     5    1
    27     5     2    1
    28   151   152    1
    29   164   163   ar
    30   152   154    1
    31   134   133    1
    32   132   131    2
    33     2     3    1
    34     2     1    1
    35   131   130    1
    36     3     4    2
    37   120   121    1
    38   120   119    1
    39   122   121    2
    40   137   138    2
    41   137   136    1
    42   133   130    1
    43   110   109    2
    44   121   123   am
    45   130   129    1
    46   119   113   am
    47   135   136    1
    48   141   143   ar
    49   141   140   ar
    50    60    59    2
    51   129   125   am
    52   143   145   ar
    53   136   139    1
    54   113   114    2
    55   113   112    1
    56   109   108    1
    57   109   111   am
    58   108   107    1
    59   123   124    1
    60    57    58    1
    61    59    58    1
    62   125   126    2
    63   125   124    1
    64    58    61    1
    65   139   140    1
    66   140   142   ar
    67   112   111    1
    68   112   115    1
    69   145   146    1
    70   145   144   ar
    71   124   127    1
    72   142   144   ar
    73   107   104   am
    74    62    61    1
    75   115   116    1
    76   117   116    1
    77   105   104    2
    78   128   127    1
    79    82    81    1
    80    43    42    2
    81   104   103    1
    82   116   118    1
    83    13    12    2
    84    14    15    1
    85    14    16    1
    86    14    11    1
    87    51    50    2
    88    83    81    1
    89    50    49    1
    90    10    11    1
    91    81    80    1
    92    42    41    1
    93    42    48   am
    94    46    45    2
    95    12    11    1
    96   101   100    2
    97   103   102    1
    98   103   106    1
    99    55    54   ar
   100    49    48    1
   101    49    52    1
   102   100   102   am
   103   100    99    1
   104    69    67    1
   105    99    98    1
   106    41    40    1
   107    41    44    1
   108    98    93   am
   109    68    67    1
   110    80    77    1
   111    45    44    1
   112    45    47   am
   113    54    56   ar
   114    54    53    1
   115    52    53    1
   116    67    64    1
   117    87    86    2
   118    23    22    1
   119    24    22    1
   120    93    92    1
   121    93    94    2
   122    74    75    1
   123    74    71    1
   124    92    95    1
   125    92    91    1
   126    77    78    1
   127    77    76    1
   128    64    63    1
   129    64    65    1
   130    22    21    1
   131    86    91   am
   132    86    85    1
   133    95    96    1
   134    78    84   am
   135    78    79    2
   136    90    84    1
   137    90    89    1
   138    84    85    1
   139    91    97    1
   140    71    70    1
   141    71    72    1
   142    65    66    2
   143    85    88    1
   144    21    18    1
   145    88    89    1
   146    72    73    2
   147    96    97    1
   148    39    37    1
   149    18    17    1
   150    18    19    1
   151    38    37    1
   152    37    34    1
   153    31    30    2
   154    19    20    2
   155    30    29    1
   156    30    32   am
   157    29    26    1
   158    34    33    1
   159    34    35    1
   160    33    27   am
   161    36    35    2
   162    25    26    1
   163    26    27    1
   164    27    28    2
