@<TRIPOS>MOLECULE
tmp/2r44A00.pdb
 100 95 0 0 0
SMALL
GASTEIGER

@<TRIPOS>ATOM
      1  N         45.8580   17.7360   -9.1090 N.3    17  ILE17      -0.1245
      2  CA        44.9910   17.9120   -7.9400 C.3    17  ILE17       0.1561
      3  C         45.0010   19.3730   -7.4650 C.2    17  ILE17       0.2260
      4  O         43.9570   19.8880   -7.1120 O.2    17  ILE17      -0.2867
      5  CB        45.3740   16.9640   -6.8160 C.3    17  ILE17       0.0252
      6  CG1       45.0230   15.5320   -7.2140 C.3    17  ILE17       0.0019
      7  CG2       44.6070   17.2590   -5.5170 C.3    17  ILE17       0.0019
      8  CD1       45.6700   14.5770   -6.3220 C.3    17  ILE17       0.0001
      9  N         41.6820   21.9510   -7.5530 N.3    21  ILE21      -0.1245
     10  CA        41.2310   22.7680   -6.4140 C.3    21  ILE21       0.1561
     11  C         41.1240   24.2520   -6.7970 C.2    21  ILE21       0.2260
     12  O         40.1650   24.9170   -6.4310 O.2    21  ILE21      -0.2867
     13  CB        42.1390   22.5810   -5.1840 C.3    21  ILE21       0.0252
     14  CG1       42.0050   21.1580   -4.6440 C.3    21  ILE21       0.0019
     15  CG2       41.7430   23.5410   -4.0720 C.3    21  ILE21       0.0019
     16  CD1       43.1070   20.8160   -3.6800 C.3    21  ILE21       0.0001
     17  N         37.4490   24.5640    1.7770 N.3    32  LYS32      -0.1231
     18  CA        38.5710   23.6640    1.6170 C.3    32  LYS32       0.1693
     19  C         38.3890   22.2800    2.2640 C.2    32  LYS32       0.2592
     20  O         38.7840   21.2740    1.6960 O.2    32  LYS32      -0.2718
     21  CB        39.8480   24.3480    2.1120 C.3    32  LYS32       0.0285
     22  CG        40.2920   25.4920    1.2220 C.3    32  LYS32       0.0035
     23  CD        40.2230   25.0910   -0.2580 C.3    32  LYS32       0.0206
     24  CE        40.6720   26.2350   -1.1700 C.3    32  LYS32       0.1093
     25  NZ        39.6940   27.3680   -1.2320 N.3    32  LYS32      -0.1314
     26  N         37.7750   22.2490    3.4310 N.am   33  TYR33      -0.1976
     27  CA        37.5840   21.0020    4.1450 C.3    33  TYR33       0.1639
     28  C         36.6630   20.0410    3.3810 C.2    33  TYR33       0.2290
     29  O         37.0090   18.8710    3.1810 O.2    33  TYR33      -0.2864
     30  CB        37.0640   21.2940    5.5520 C.3    33  TYR33       0.0560
     31  CG        36.6320   20.0620    6.2710 C.ar   33  TYR33      -0.0198
     32  CD1       37.5420   19.2480    6.9260 C.ar   33  TYR33      -0.0009
     33  CD2       35.3050   19.6930    6.2730 C.ar   33  TYR33      -0.0009
     34  CE1       37.1230   18.1030    7.5740 C.ar   33  TYR33       0.0417
     35  CE2       34.8900   18.5670    6.9060 C.ar   33  TYR33       0.0417
     36  CZ        35.7850   17.7840    7.5500 C.ar   33  TYR33       0.1957
     37  OH        35.2870   16.6740    8.1540 O.3    33  TYR33      -0.2866
     38  N         35.7180   20.0560    0.1370 N.3    34  ILE34      -0.1231
     39  CA        36.3220   19.6800   -1.1270 C.3    34  ILE34       0.1692
     40  C         37.4460   18.6860   -0.9570 C.2    34  ILE34       0.2592
     41  O         37.5470   17.7720   -1.7530 O.2    34  ILE34      -0.2718
     42  CB        36.8440   20.9220   -1.8860 C.3    34  ILE34       0.0266
     43  CG1       35.6420   21.7070   -2.4060 C.3    34  ILE34       0.0019
     44  CG2       37.8320   20.5400   -3.0130 C.3    34  ILE34       0.0020
     45  CD1       36.0770   22.8680   -3.1540 C.3    34  ILE34       0.0001
     46  N         38.3060   18.8840    0.0380 N.am   35  ASN35      -0.1960
     47  CA        39.3430   17.8930    0.3220 C.3    35  ASN35       0.1819
     48  C         38.7250   16.4880    0.6000 C.2    35  ASN35       0.2621
     49  O         39.1710   15.4970    0.0290 O.2    35  ASN35      -0.2715
     50  CB        40.1800   18.3620    1.5050 C.3    35  ASN35       0.1195
     51  CG        41.1520   17.2810    2.0250 C.2    35  ASN35       0.2630
     52  OD1       40.8470   16.6260    3.0160 O.2    35  ASN35      -0.2716
     53  ND2       42.3070   17.0940    1.3650 N.am   35  ASN35      -0.0877
     54  N         37.6720   16.4250    1.4250 N.am   36  ARG36      -0.1977
     55  CA        37.0400   15.1420    1.7660 C.3    36  ARG36       0.1597
     56  C         36.3470   14.5130    0.5490 C.2    36  ARG36       0.2287
     57  O         36.3960   13.3090    0.3620 O.2    36  ARG36      -0.2864
     58  CB        36.0730   15.2850    2.9520 C.3    36  ARG36       0.0334
     59  CG        36.7230   15.7190    4.3280 C.3    36  ARG36       0.0492
     60  CD        37.9700   15.0120    4.6170 C.3    36  ARG36       0.2205
     61  NE        38.3680   15.0020    6.0400 N.pl3  36  ARG36      -0.0865
     62  CZ        39.4370   15.5970    6.5880 C.cat  36  ARG36       0.5346
     63  NH1       40.3120   16.2860    5.8770 N.pl3  36  ARG36       0.1354
     64  NH2       39.6720   15.4650    7.8870 N.pl3  36  ARG36       0.1354
     65  N         37.2860   14.8640   -2.5120 N.3    38  LEU38      -0.1245
     66  CA        38.3950   14.4020   -3.3260 C.3    38  LEU38       0.1561
     67  C         38.9720   13.0970   -2.8280 C.2    38  LEU38       0.2260
     68  O         39.2580   12.2100   -3.6160 O.2    38  LEU38      -0.2867
     69  CB        39.5350   15.4260   -3.4040 C.3    38  LEU38       0.0270
     70  CG        39.5630   16.4600   -4.5310 C.3    38  LEU38       0.0019
     71  CD1       40.7080   17.4290   -4.2680 C.3    38  LEU38       0.0001
     72  CD2       39.7650   15.8040   -5.8600 C.3    38  LEU38       0.0001
     73  N         48.1840   14.0010   -1.4420 N.3   269  PHE269     -0.1227
     74  CA        47.7430   15.4020   -1.5310 C.3   269  PHE269      0.1736
     75  C         48.7290   16.3930   -0.8840 C.2   269  PHE269      0.2595
     76  O         48.6820   17.5700   -1.2070 O.2   269  PHE269     -0.2718
     77  CB        46.3170   15.6230   -0.9800 C.3   269  PHE269      0.0547
     78  CG        45.2090   14.8270   -1.6920 C.ar  269  PHE269     -0.0202
     79  CD1       45.3550   14.2690   -2.9680 C.ar  269  PHE269     -0.0042
     80  CD2       43.9590   14.7580   -1.1060 C.ar  269  PHE269     -0.0042
     81  CE1       44.2910   13.5710   -3.5610 C.ar  269  PHE269     -0.0003
     82  CE2       42.9200   14.0830   -1.7160 C.ar  269  PHE269     -0.0003
     83  CZ        43.0980   13.4910   -2.9320 C.ar  269  PHE269     -0.0000
     84  N         49.6190   15.9130   -0.0190 N.am  270  ASN270     -0.1974
     85  CA        50.6880   16.7080    0.5750 C.3   270  ASN270      0.1688
     86  C         52.0250   16.4560   -0.1370 C.2   270  ASN270      0.2292
     87  O         53.0860   16.6960    0.4200 O.2   270  ASN270     -0.2864
     88  CB        50.7610   16.4390    2.0810 C.3   270  ASN270      0.1181
     89  CG        49.6380   17.1210    2.8390 C.2   270  ASN270      0.2629
     90  OD1       49.6660   18.3400    3.0260 O.2   270  ASN270     -0.2716
     91  ND2       48.6760   16.3460    3.3200 N.am  270  ASN270     -0.0877
     92  N         44.9020   13.3230   11.2350 N.3   282  GLU282     -0.1245
     93  CA        44.0660   14.3230   10.5740 C.3   282  GLU282      0.1567
     94  C         42.6910   13.7810   10.1920 C.2   282  GLU282      0.2260
     95  O         41.7210   14.5350   10.1700 O.2   282  GLU282     -0.2867
     96  CB        44.7790   14.7870    9.2850 C.3   282  GLU282      0.0388
     97  CG        43.9790   15.6130    8.2260 C.3   282  GLU282      0.1160
     98  CD        43.5050   16.9820    8.7090 C.2   282  GLU282      0.3649
     99  OE1       44.1270   17.5270    9.6550 O.co2 282  GLU282     -0.2457
    100  OE2       42.5300   17.5160    8.1100 O.co2 282  GLU282     -0.2457
@<TRIPOS>BOND
     1     1     2    1
     2     2     3    1
     3     2     5    1
     4     9    10    1
     5     3     4    2
     6     6     5    1
     7     6     8    1
     8     5     7    1
     9    11    12    2
    10    11    10    1
    11    10    13    1
    12    72    70    1
    13    13    14    1
    14    13    15    1
    15    14    16    1
    16    70    71    1
    17    70    69    1
    18    68    67    2
    19    81    79   ar
    20    81    83   ar
    21    69    66    1
    22    66    67    1
    23    66    65    1
    24    45    43    1
    25    44    42    1
    26    79    78   ar
    27    83    82   ar
    28    43    42    1
    29    42    39    1
    30    41    40    2
    31    82    80   ar
    32    78    80   ar
    33    78    77    1
    34    74    73    1
    35    74    77    1
    36    74    75    1
    37    25    24    1
    38    76    75    2
    39    24    23    1
    40    39    40    1
    41    39    38    1
    42    40    46   am
    43    75    84   am
    44    23    22    1
    45    86    87    2
    46    86    85    1
    47    84    85    1
    48    49    48    2
    49    46    47    1
    50    47    48    1
    51    47    50    1
    52    57    56    2
    53    56    55    1
    54    85    88    1
    55    48    54   am
    56    22    21    1
    57    53    51   am
    58    54    55    1
    59    50    51    1
    60    18    17    1
    61    18    21    1
    62    18    19    1
    63    20    19    2
    64    55    58    1
    65    51    52    2
    66    88    89    1
    67    19    26   am
    68    89    90    2
    69    89    91   am
    70    58    59    1
    71    29    28    2
    72    28    27    1
    73    26    27    1
    74    27    30    1
    75    59    60    1
    76    60    61    1
    77    30    31    1
    78    63    62    1
    79    61    62    2
    80    31    33   ar
    81    31    32   ar
    82    33    35   ar
    83    62    64    1
    84    35    36   ar
    85    32    34   ar
    86    36    34   ar
    87    36    37    1
    88   100    98   ar
    89    97    98    1
    90    97    96    1
    91    98    99   ar
    92    96    93    1
    93    95    94    2
    94    94    93    1
    95    93    92    1
