@<TRIPOS>MOLECULE
tmp/2r44A02.pdb
 104 99 0 0 0
SMALL
GASTEIGER

@<TRIPOS>ATOM
      1  N         35.3840   26.6320    1.6110 N.3    31  GLN31      -0.1245
      2  CA        35.0790   25.2050    1.7580 C.3    31  GLN31       0.1566
      3  C         36.2220   24.2340    1.3760 C.2    31  GLN31       0.2260
      4  O         36.0000   23.2240    0.7050 O.2    31  GLN31      -0.2867
      5  CB        33.8110   24.8820    0.9840 C.3    31  GLN31       0.0367
      6  CG        32.5860   25.4760    1.6030 C.3    31  GLN31       0.0905
      7  CD        31.3710   24.9380    0.9890 C.2    31  GLN31       0.2608
      8  OE1       30.8330   23.9630    1.4730 O.2    31  GLN31      -0.2717
      9  NE2       30.9660   25.5020   -0.1250 N.am   31  GLN31      -0.0878
     10  N         23.0490   16.7260    8.1370 N.3    51  GLY51      -0.1210
     11  CA        22.4800   18.0340    7.7120 C.3    51  GLY51       0.1956
     12  C         22.2810   17.9740    6.1720 C.2    51  GLY51       0.2611
     13  O         22.9660   17.2020    5.4870 O.2    51  GLY51      -0.2717
     14  N         21.3180   18.7150    5.6350 N.am   52  VAL52      -0.1979
     15  CA        21.0740   18.7990    4.1860 C.3    52  VAL52       0.1595
     16  C         21.9840   19.9460    3.6330 C.2    52  VAL52       0.2287
     17  O         21.9200   21.0760    4.1540 O.2    52  VAL52      -0.2864
     18  CB        19.5700   19.0860    3.8830 C.3    52  VAL52       0.0276
     19  CG1       19.3140   19.2600    2.3790 C.3    52  VAL52       0.0022
     20  CG2       18.6990   17.9770    4.4510 C.3    52  VAL52       0.0022
     21  N         23.3950   23.0640    1.7340 N.3    54  GLY54      -0.1225
     22  CA        22.8640   24.2670    1.1210 C.3    54  GLY54       0.1811
     23  C         23.5690   24.5720   -0.1820 C.2    54  GLY54       0.2280
     24  O         24.5840   23.9510   -0.5200 O.2    54  GLY54      -0.2866
     25  N         25.7140   26.5950   -1.4280 N.3    56  ALA56      -0.1231
     26  CA        27.1740   26.6380   -1.5110 C.3    56  ALA56       0.1694
     27  C         27.8240   25.2250   -1.5110 C.2    56  ALA56       0.2591
     28  O         28.8000   25.0060   -2.2430 O.2    56  ALA56      -0.2718
     29  CB        27.7530   27.5300   -0.4020 C.3    56  ALA56       0.0304
     30  N         27.2730   24.2780   -0.7350 N.am   57  LYS57      -0.1980
     31  CA        27.8140   22.8970   -0.6850 C.3    57  LYS57       0.1596
     32  C         27.4400   22.0690   -1.9230 C.2    57  LYS57       0.2287
     33  O         28.2970   21.3710   -2.4610 O.2    57  LYS57      -0.2864
     34  CB        27.4110   22.1470    0.5980 C.3    57  LYS57       0.0298
     35  CG        27.8040   22.8860    1.8610 C.3    57  LYS57       0.0038
     36  CD        28.2430   22.0210    3.0350 C.3    57  LYS57       0.0206
     37  CE        28.7130   22.8950    4.2220 C.3    57  LYS57       0.1093
     38  NZ        29.9420   23.7180    3.9480 N.3    57  LYS57      -0.1314
     39  N         18.7880   14.5740    7.2430 N.3   153  ASN153     -0.1226
     40  CA        18.3060   15.7460    7.9530 C.3   153  ASN153      0.1770
     41  C         18.0630   15.3100    9.3990 C.2   153  ASN153      0.2439
     42  O         17.1060   14.5840    9.6450 O.2   153  ASN153     -0.2733
     43  CB        16.9970   16.2190    7.3120 C.3   153  ASN153      0.1168
     44  CG        16.3580   17.3880    8.0490 C.2   153  ASN153      0.2627
     45  OD1       16.8730   17.8860    9.0610 O.2   153  ASN153     -0.2716
     46  ND2       15.2170   17.8320    7.5330 N.am  153  ASN153     -0.0877
     47  N         18.8620   15.8120   10.3630 N.am  154  PRO154     -0.2718
     48  CA        18.7080   15.3190   11.7540 C.3   154  PRO154      0.1535
     49  C         17.4580   15.7630   12.5500 C.2   154  PRO154      0.2598
     50  O         17.1450   15.1520   13.5900 O.2   154  PRO154     -0.2715
     51  CB        19.9900   15.8110   12.4480 C.3   154  PRO154      0.0310
     52  CG        20.4680   16.9480   11.6460 C.3   154  PRO154      0.0237
     53  CD        19.8880   16.8650   10.2610 C.3   154  PRO154      0.0939
     54  N         16.7540   16.7870   12.0670 N.am  155  VAL155     -0.1978
     55  CA        15.5710   17.3210   12.7550 C.3   155  VAL155      0.1596
     56  C         14.3530   17.2730   11.8280 C.2   155  VAL155      0.2287
     57  O         13.6000   18.2400   11.7020 O.2   155  VAL155     -0.2864
     58  CB        15.8660   18.7460   13.3400 C.3   155  VAL155      0.0276
     59  CG1       16.8950   18.6420   14.4660 C.3   155  VAL155      0.0022
     60  CG2       16.3560   19.7270   12.2490 C.3   155  VAL155      0.0022
     61  N         27.7040   18.8250    8.9260 N.3   175  LEU175     -0.1231
     62  CA        27.7010   20.1190    8.2220 C.3   175  LEU175      0.1693
     63  C         27.4620   21.2760    9.1370 C.2   175  LEU175      0.2593
     64  O         26.6800   21.1830   10.0640 O.2   175  LEU175     -0.2718
     65  CB        26.6130   20.1600    7.1450 C.3   175  LEU175      0.0284
     66  CG        26.7000   19.1290    6.0220 C.3   175  LEU175      0.0019
     67  CD1       25.5020   19.2910    5.0500 C.3   175  LEU175      0.0001
     68  CD2       28.0720   19.2250    5.3020 C.3   175  LEU175      0.0001
     69  N         28.1140   22.3860    8.8190 N.am  176  THR176     -0.1939
     70  CA        28.0080   23.6270    9.5600 C.3   176  THR176      0.2028
     71  C         27.7890   24.7700    8.5510 C.2   176  THR176      0.2642
     72  O         28.1330   24.6600    7.3600 O.2   176  THR176     -0.2714
     73  CB        29.3350   23.8610   10.3350 C.3   176  THR176      0.1808
     74  OG1       29.2350   25.0310   11.1400 O.3   176  THR176     -0.2208
     75  CG2       30.5230   23.9900    9.3700 C.3   176  THR176      0.0379
     76  N         27.2640   25.8790    9.0310 N.am  177  TYR177     -0.1959
     77  CA        27.0950   27.0600    8.1680 C.3   177  TYR177      0.1771
     78  C         28.4460   27.6840    7.8890 C.2   177  TYR177      0.2619
     79  O         29.3790   27.5480    8.6880 O.2   177  TYR177     -0.2715
     80  CB        26.2840   28.1280    8.8740 C.3   177  TYR177      0.0574
     81  CG        24.8620   27.7830    9.1030 C.ar  177  TYR177     -0.0198
     82  CD1       23.9980   27.6550    8.0410 C.ar  177  TYR177     -0.0009
     83  CD2       24.3580   27.5980   10.3860 C.ar  177  TYR177     -0.0009
     84  CE1       22.6560   27.3430    8.2380 C.ar  177  TYR177      0.0417
     85  CE2       23.0410   27.3100   10.5800 C.ar  177  TYR177      0.0417
     86  CZ        22.1930   27.1750    9.4980 C.ar  177  TYR177      0.1957
     87  OH        20.8620   26.8810    9.6800 O.3   177  TYR177     -0.2866
     88  N         28.5360   28.4010    6.7830 N.am  178  LEU178     -0.1977
     89  CA        29.7230   29.1680    6.4580 C.3   178  LEU178      0.1596
     90  C         29.8680   30.3190    7.4280 C.2   178  LEU178      0.2287
     91  O         28.9320   30.6790    8.1130 O.2   178  LEU178     -0.2864
     92  CB        29.5950   29.7820    5.0640 C.3   178  LEU178      0.0297
     93  CG        29.4920   28.8660    3.8520 C.3   178  LEU178      0.0022
     94  CD1       29.0880   29.6590    2.6080 C.3   178  LEU178      0.0001
     95  CD2       30.8160   28.1280    3.6590 C.3   178  LEU178      0.0001
     96  N         29.9690   33.6050    3.2610 N.3   183  GLU183     -0.1245
     97  CA        28.5810   33.7210    2.8280 C.3   183  GLU183      0.1567
     98  C         28.3170   34.9920    2.0260 C.2   183  GLU183      0.2260
     99  O         27.6160   34.9650    1.0010 O.2   183  GLU183     -0.2867
    100  CB        27.6370   33.5850    4.0230 C.3   183  GLU183      0.0388
    101  CG        26.2100   33.3420    3.5390 C.3   183  GLU183      0.1160
    102  CD        25.5660   32.0840    4.0680 C.2   183  GLU183      0.3649
    103  OE1       26.1540   31.3530    4.8750 O.co2 183  GLU183     -0.2457
    104  OE2       24.4510   31.8070    3.6160 O.co2 183  GLU183     -0.2457
@<TRIPOS>BOND
     1    33    32    2
     2    28    27    2
     3    32    31    1
     4    26    27    1
     5    26    25    1
     6    26    29    1
     7    27    30   am
     8    30    31    1
     9    31    34    1
    10    24    23    2
    11    23    22    1
    12     9     7   am
    13    34    35    1
    14     4     3    2
    15     5     6    1
    16     5     2    1
    17     7     8    2
    18     7     6    1
    19    99    98    2
    20    22    21    1
    21     3     2    1
    22     1     2    1
    23    35    36    1
    24    98    97    1
    25    19    18    1
    26    94    93    1
    27    97    96    1
    28    97   100    1
    29    36    37    1
    30   101   100    1
    31   101   102    1
    32   104   102   ar
    33    16    17    2
    34    16    15    1
    35    95    93    1
    36    93    92    1
    37    18    15    1
    38    18    20    1
    39    38    37    1
    40   102   103   ar
    41    15    14    1
    42    67    66    1
    43    92    89    1
    44    68    66    1
    45    13    12    2
    46    14    12   am
    47    66    65    1
    48    12    11    1
    49    89    88    1
    50    89    90    1
    51    88    78   am
    52    65    62    1
    53    39    40    1
    54    43    40    1
    55    43    44    1
    56    72    71    2
    57    90    91    2
    58    46    44   am
    59    11    10    1
    60    78    77    1
    61    78    79    2
    62    40    41    1
    63    82    84   ar
    64    82    81   ar
    65    44    45    2
    66    77    80    1
    67    77    76    1
    68    62    61    1
    69    62    63    1
    70    84    86   ar
    71    71    76   am
    72    71    70    1
    73    69    63   am
    74    69    70    1
    75    80    81    1
    76    81    83   ar
    77    63    64    2
    78    75    73    1
    79    41    42    2
    80    41    47   am
    81    86    87    1
    82    86    85   ar
    83    70    73    1
    84    53    47    1
    85    53    52    1
    86    73    74    1
    87    47    48    1
    88    83    85   ar
    89    52    51    1
    90    57    56    2
    91    48    51    1
    92    48    49    1
    93    56    55    1
    94    54    49   am
    95    54    55    1
    96    60    58    1
    97    49    50    2
    98    55    58    1
    99    58    59    1
