@<TRIPOS>MOLECULE
tmp/2r46B02.pdb
 109 107 0 0 0
SMALL
GASTEIGER

@<TRIPOS>ATOM
      1  N         20.4830  -24.8670  -11.7990 N.3   157  GLN157     -0.1245
      2  CA        20.4350  -25.1810  -10.3720 C.3   157  GLN157      0.1566
      3  C         20.6870  -23.9100   -9.5680 C.2   157  GLN157      0.2260
      4  O         20.0390  -23.6700   -8.5530 O.2   157  GLN157     -0.2867
      5  CB        21.4720  -26.2510  -10.0110 C.3   157  GLN157      0.0367
      6  CG        21.2140  -27.6080  -10.6690 C.3   157  GLN157      0.0905
      7  CD        22.0760  -28.7180  -10.0950 C.2   157  GLN157      0.2608
      8  OE1       23.2650  -28.5280   -9.8530 O.2   157  GLN157     -0.2717
      9  NE2       21.4770  -29.8900   -9.8840 N.am  157  GLN157     -0.0878
     10  N         17.5600  -21.8540   -9.2030 N.3   160  VAL160     -0.1231
     11  CA        16.7360  -22.4270   -8.1480 C.3   160  VAL160      0.1692
     12  C         17.3170  -22.1520   -6.7630 C.2   160  VAL160      0.2591
     13  O         16.5880  -21.8020   -5.8370 O.2   160  VAL160     -0.2718
     14  CB        16.6030  -23.9530   -8.3400 C.3   160  VAL160      0.0266
     15  CG1       15.9240  -24.5860   -7.1320 C.3   160  VAL160      0.0020
     16  CG2       15.8200  -24.2400   -9.6030 C.3   160  VAL160      0.0020
     17  N         18.6300  -22.3190   -6.6330 N.am  161  ARG161     -0.1980
     18  CA        19.3160  -22.0880   -5.3680 C.3   161  ARG161      0.1597
     19  C         19.1130  -20.6570   -4.8950 C.2   161  ARG161      0.2287
     20  O         19.1110  -20.3860   -3.6930 O.2   161  ARG161     -0.2864
     21  CB        20.8190  -22.3650   -5.5080 C.3   161  ARG161      0.0334
     22  CG        21.6340  -21.9790   -4.2710 C.3   161  ARG161      0.0492
     23  CD        22.8230  -22.9130   -4.0470 C.3   161  ARG161      0.2205
     24  NE        24.0390  -22.4910   -4.7350 N.pl3 161  ARG161     -0.0865
     25  CZ        25.1480  -23.2230   -4.7950 C.cat 161  ARG161      0.5346
     26  NH1       25.1920  -24.4150   -4.2130 N.pl3 161  ARG161      0.1354
     27  NH2       26.2180  -22.7610   -5.4270 N.pl3 161  ARG161      0.1354
     28  N         12.4040  -22.7320  -12.4970 N.3   166  VAL166     -0.1245
     29  CA        12.7660  -23.2650  -13.8060 C.3   166  VAL166      0.1561
     30  C         11.7450  -24.2950  -14.2650 C.2   166  VAL166      0.2260
     31  O         11.4750  -25.2700  -13.5640 O.2   166  VAL166     -0.2867
     32  CB        14.1560  -23.9590  -13.7950 C.3   166  VAL166      0.0252
     33  CG1       14.3920  -24.6660  -15.1290 C.3   166  VAL166      0.0019
     34  CG2       15.2580  -22.9430  -13.5450 C.3   166  VAL166      0.0019
     35  N         26.8220  -24.7770   -8.6130 N.3   387  PRO387     -0.2116
     36  CA        26.4520  -26.0040   -7.9040 C.3   387  PRO387      0.1372
     37  C         27.2410  -27.1450   -8.5300 C.2   387  PRO387      0.2244
     38  O         27.3350  -27.2370   -9.7560 O.2   387  PRO387     -0.2868
     39  CB        24.9560  -26.1190   -8.1730 C.3   387  PRO387      0.0268
     40  CG        24.5230  -24.6700   -8.2510 C.3   387  PRO387      0.0207
     41  CD        25.6260  -24.0480   -9.0760 C.3   387  PRO387      0.0892
     42  N         24.8410  -35.8930   -2.3710 N.3   427  LEU427     -0.1245
     43  CA        23.3900  -35.7880   -2.4350 C.3   427  LEU427      0.1561
     44  C         22.8490  -36.9620   -3.2530 C.2   427  LEU427      0.2260
     45  O         21.7760  -37.4860   -2.9690 O.2   427  LEU427     -0.2867
     46  CB        22.9880  -34.4570   -3.0730 C.3   427  LEU427      0.0270
     47  CG        21.4970  -34.1770   -3.2800 C.3   427  LEU427      0.0019
     48  CD1       20.7430  -34.3130   -1.9630 C.3   427  LEU427      0.0001
     49  CD2       21.3260  -32.7700   -3.8540 C.3   427  LEU427      0.0001
     50  N         18.2920  -39.4770   -8.9220 N.3   453  TYR453     -0.1241
     51  CA        18.8600  -38.1800   -8.5880 C.3   453  TYR453      0.1605
     52  C         18.6670  -37.2000   -9.7500 C.2   453  TYR453      0.2264
     53  O         18.3670  -36.0240   -9.5410 O.2   453  TYR453     -0.2867
     54  CB        20.3540  -38.3100   -8.2930 C.3   453  TYR453      0.0534
     55  CG        21.0100  -36.9730   -8.0690 C.ar  453  TYR453     -0.0201
     56  CD1       20.7860  -36.2620   -6.8940 C.ar  453  TYR453     -0.0009
     57  CD2       21.8050  -36.3850   -9.0580 C.ar  453  TYR453     -0.0009
     58  CE1       21.3270  -35.0050   -6.7010 C.ar  453  TYR453      0.0417
     59  CE2       22.3550  -35.1140   -8.8740 C.ar  453  TYR453      0.0417
     60  CZ        22.1090  -34.4330   -7.6870 C.ar  453  TYR453      0.1957
     61  OH        22.6400  -33.1810   -7.4700 O.3   453  TYR453     -0.2866
     62  N         16.2920  -37.1470  -12.0030 N.3   455  VAL455     -0.1231
     63  CA        14.9010  -36.7240  -12.1010 C.3   455  VAL455      0.1692
     64  C         14.5600  -35.7340  -10.9890 C.2   455  VAL455      0.2592
     65  O         13.8830  -34.7350  -11.2320 O.2   455  VAL455     -0.2718
     66  CB        13.9380  -37.9260  -11.9950 C.3   455  VAL455      0.0266
     67  CG1       12.4890  -37.4400  -11.9290 C.3   455  VAL455      0.0020
     68  CG2       14.1250  -38.8370  -13.1840 C.3   455  VAL455      0.0020
     69  N         15.0450  -36.0080   -9.7790 N.am  456  ASP456     -0.1960
     70  CA        14.7650  -35.1640   -8.6180 C.3   456  ASP456      0.1840
     71  C         15.5200  -33.8430   -8.5870 C.2   456  ASP456      0.2622
     72  O         14.9950  -32.8330   -8.1210 O.2   456  ASP456     -0.2715
     73  CB        15.0840  -35.9040   -7.3120 C.3   456  ASP456      0.1450
     74  CG        14.2200  -37.1330   -7.0990 C.2   456  ASP456      0.3671
     75  OD1       13.1550  -37.2410   -7.7360 O.co2 456  ASP456     -0.2456
     76  OD2       14.6100  -37.9850   -6.2710 O.co2 456  ASP456     -0.2456
     77  N         16.7550  -33.8450   -9.0740 N.am  457  HIS457     -0.1959
     78  CA        17.5410  -32.6270   -9.0300 C.3   457  HIS457      0.1787
     79  C         18.0530  -32.0520  -10.3360 C.2   457  HIS457      0.2620
     80  O         18.6320  -30.9690  -10.3320 O.2   457  HIS457     -0.2715
     81  CB        18.7110  -32.8230   -8.0670 C.3   457  HIS457      0.0785
     82  CG        18.2830  -33.0660   -6.6550 C.ar  457  HIS457      0.0821
     83  ND1       18.2130  -34.3280   -6.1030 N.ar  457  HIS457     -0.2267
     84  CD2       17.8450  -32.2120   -5.7010 C.ar  457  HIS457      0.1154
     85  CE1       17.7470  -34.2400   -4.8700 C.ar  457  HIS457      0.1986
     86  NE2       17.5150  -32.9670   -4.6020 N.ar  457  HIS457     -0.2212
     87  N         17.8450  -32.7410  -11.4520 N.am  458  GLU458     -0.1963
     88  CA        18.3390  -32.2140  -12.7160 C.3   458  GLU458      0.1733
     89  C         17.3290  -32.1500  -13.8560 C.2   458  GLU458      0.2616
     90  O         17.7000  -32.1930  -15.0270 O.2   458  GLU458     -0.2715
     91  CB        19.5930  -32.9910  -13.1430 C.3   458  GLU458      0.0429
     92  CG        20.7670  -32.7810  -12.1900 C.3   458  GLU458      0.1163
     93  CD        22.1140  -33.1460  -12.8060 C.2   458  GLU458      0.3649
     94  OE1       22.1910  -33.3150  -14.0440 O.co2 458  GLU458     -0.2457
     95  OE2       23.1070  -33.2470  -12.0490 O.co2 458  GLU458     -0.2457
     96  N         16.0500  -32.0490  -13.5050 N.am  459  TRP459     -0.1974
     97  CA        14.9650  -31.9290  -14.4820 C.3   459  TRP459      0.1640
     98  C         14.8580  -33.0100  -15.5580 C.2   459  TRP459      0.2290
     99  O         14.2300  -32.7830  -16.5940 O.2   459  TRP459     -0.2864
    100  CB        15.0430  -30.5580  -15.1680 C.3   459  TRP459      0.0576
    101  CG        14.8110  -29.4020  -14.2450 C.ar  459  TRP459      0.0006
    102  CD1       13.6020  -28.8540  -13.8940 C.ar  459  TRP459      0.0946
    103  CD2       15.8070  -28.6750  -13.5180 C.ar  459  TRP459      0.0152
    104  NE1       13.7920  -27.8340  -12.9940 N.ar  459  TRP459     -0.2442
    105  CE2       15.1330  -27.7020  -12.7460 C.ar  459  TRP459      0.0810
    106  CE3       17.2050  -28.7530  -13.4420 C.ar  459  TRP459      0.0012
    107  CZ2       15.8130  -26.8070  -11.9050 C.ar  459  TRP459      0.0191
    108  CZ3       17.8820  -27.8650  -12.6080 C.ar  459  TRP459      0.0001
    109  CH2       17.1820  -26.9040  -11.8500 C.ar  459  TRP459      0.0015
@<TRIPOS>BOND
     1    99    98    2
     2    98    97    1
     3   100    97    1
     4   100   101    1
     5    33    32    1
     6    90    89    2
     7    97    96    1
     8    30    29    1
     9    30    31    2
    10   101   102   ar
    11   101   103   ar
    12    94    93   ar
    13   102   104   ar
    14    89    96   am
    15    89    88    1
    16    29    32    1
    17    29    28    1
    18    32    34    1
    19   103   106   ar
    20   103   105   ar
    21   106   108   ar
    22    68    66    1
    23    91    88    1
    24    91    92    1
    25   104   105   ar
    26    93    92    1
    27    93    95   ar
    28   105   107   ar
    29    88    87    1
    30   108   109   ar
    31    63    62    1
    32    63    66    1
    33    63    64    1
    34    66    67    1
    35   107   109   ar
    36     1     2    1
    37    87    79   am
    38    65    64    2
    39    64    69   am
    40     6     7    1
    41     6     5    1
    42     2     5    1
    43     2     3    1
    44    79    80    2
    45    79    78    1
    46     7     9   am
    47     7     8    2
    48    69    70    1
    49    38    37    2
    50    52    53    2
    51    52    51    1
    52    16    14    1
    53     3     4    2
    54    10    11    1
    55    41    35    1
    56    41    40    1
    57    77    78    1
    58    77    71   am
    59    57    59   ar
    60    57    55   ar
    61    78    81    1
    62    50    51    1
    63    59    60   ar
    64    70    71    1
    65    70    73    1
    66    35    36    1
    67    51    54    1
    68    71    72    2
    69    37    36    1
    70    14    11    1
    71    14    15    1
    72    54    55    1
    73    40    39    1
    74    39    36    1
    75    11    12    1
    76    55    56   ar
    77    81    82    1
    78    75    74   ar
    79    60    61    1
    80    60    58   ar
    81    73    74    1
    82    74    76   ar
    83    56    58   ar
    84    12    17   am
    85    12    13    2
    86    82    83   ar
    87    82    84   ar
    88    17    18    1
    89    83    85   ar
    90    84    86   ar
    91    21    18    1
    92    21    22    1
    93    27    25    1
    94    18    19    1
    95    19    20    2
    96    85    86   ar
    97    25    24    2
    98    25    26    1
    99    24    23    1
   100    22    23    1
   101    49    47    1
   102    47    46    1
   103    47    48    1
   104    44    45    2
   105    44    43    1
   106    46    43    1
   107    43    42    1
