@<TRIPOS>MOLECULE
tmp/2r46B04.pdb
 119 112 0 0 0
SMALL
GASTEIGER

@<TRIPOS>ATOM
      1  N         31.6720  -27.7000  -29.7270 N.3    46  SER46      -0.1217
      2  CA        32.9300  -28.4290  -29.7620 C.3    46  SER46       0.1889
      3  C         33.4070  -28.5920  -28.3190 C.2    46  SER46       0.2288
      4  O         34.4840  -29.1230  -28.0660 O.2    46  SER46      -0.2866
      5  CB        33.9770  -27.6710  -30.5860 C.3    46  SER46       0.2089
      6  OG        33.5700  -27.5560  -31.9380 O.3    46  SER46      -0.2183
      7  N         37.4280  -21.5190  -25.2180 N.3    50  HIS50      -0.1241
      8  CA        38.6080  -20.9900  -25.8840 C.3    50  HIS50       0.1621
      9  C         38.4780  -19.5120  -26.1880 C.2    50  HIS50       0.2264
     10  O         37.3790  -18.9630  -26.1740 O.2    50  HIS50      -0.2867
     11  CB        38.8530  -21.7670  -27.1820 C.3    50  HIS50       0.0745
     12  CG        37.7640  -21.6060  -28.1960 C.ar   50  HIS50       0.0817
     13  ND1       36.4330  -21.7910  -27.8910 N.ar   50  HIS50      -0.2268
     14  CD2       37.8070  -21.2740  -29.5070 C.ar   50  HIS50       0.1154
     15  CE1       35.7030  -21.5770  -28.9720 C.ar   50  HIS50       0.1986
     16  NE2       36.5120  -21.2610  -29.9660 N.ar   50  HIS50      -0.2212
     17  N         41.4890  -18.5380  -34.2620 N.3    54  ARG54      -0.1231
     18  CA        41.1900  -18.1740  -35.6440 C.3    54  ARG54       0.1694
     19  C         40.4870  -16.8290  -35.8390 C.2    54  ARG54       0.2592
     20  O         40.5250  -16.2760  -36.9350 O.2    54  ARG54      -0.2718
     21  CB        40.3670  -19.2820  -36.3120 C.3    54  ARG54       0.0321
     22  CG        38.8690  -19.1590  -36.1060 C.3    54  ARG54       0.0489
     23  CD        38.1210  -20.3530  -36.6780 C.3    54  ARG54       0.2205
     24  NE        36.6950  -20.0670  -36.7770 N.pl3  54  ARG54      -0.0865
     25  CZ        36.1440  -19.3290  -37.7360 C.cat  54  ARG54       0.5346
     26  NH1       36.9000  -18.8070  -38.6910 N.pl3  54  ARG54       0.1354
     27  NH2       34.8360  -19.0980  -37.7270 N.pl3  54  ARG54       0.1354
     28  N         39.8470  -16.2980  -34.8000 N.am   55  TYR55      -0.1976
     29  CA        39.1600  -15.0110  -34.9400 C.3    55  TYR55       0.1639
     30  C         40.1590  -13.8580  -34.9970 C.2    55  TYR55       0.2290
     31  O         39.8350  -12.7560  -35.4490 O.2    55  TYR55      -0.2864
     32  CB        38.1800  -14.7740  -33.7860 C.3    55  TYR55       0.0560
     33  CG        37.2190  -15.9130  -33.5330 C.ar   55  TYR55      -0.0198
     34  CD1       36.6940  -16.6630  -34.5860 C.ar   55  TYR55      -0.0009
     35  CD2       36.8340  -16.2410  -32.2360 C.ar   55  TYR55      -0.0009
     36  CE1       35.8130  -17.7170  -34.3470 C.ar   55  TYR55       0.0417
     37  CE2       35.9570  -17.2860  -31.9880 C.ar   55  TYR55       0.0417
     38  CZ        35.4510  -18.0210  -33.0420 C.ar   55  TYR55       0.1957
     39  OH        34.5920  -19.0670  -32.7830 O.3    55  TYR55      -0.2866
     40  N         39.9270  -22.8410  -42.9190 N.3   254  ARG254     -0.1231
     41  CA        39.2340  -23.1210  -41.6650 C.3   254  ARG254      0.1694
     42  C         40.1350  -24.0100  -40.8180 C.2   254  ARG254      0.2591
     43  O         41.1330  -24.5480  -41.3010 O.2   254  ARG254     -0.2718
     44  CB        37.9040  -23.8500  -41.8970 C.3   254  ARG254      0.0321
     45  CG        36.8400  -23.0210  -42.5920 C.3   254  ARG254      0.0489
     46  CD        35.5000  -23.7440  -42.6050 C.3   254  ARG254      0.2205
     47  NE        34.9190  -23.8540  -41.2680 N.pl3 254  ARG254     -0.0865
     48  CZ        34.9410  -24.9510  -40.5160 C.cat 254  ARG254      0.5346
     49  NH1       35.5170  -26.0650  -40.9490 N.pl3 254  ARG254      0.1354
     50  NH2       34.3630  -24.9370  -39.3290 N.pl3 254  ARG254      0.1354
     51  N         39.7690  -24.1570  -39.5530 N.am  255  ILE255     -0.1980
     52  CA        40.5060  -24.9840  -38.6130 C.3   255  ILE255      0.1595
     53  C         39.5600  -26.0980  -38.1660 C.2   255  ILE255      0.2287
     54  O         38.3590  -25.8790  -38.0570 O.2   255  ILE255     -0.2864
     55  CB        40.9580  -24.1360  -37.3850 C.3   255  ILE255      0.0276
     56  CG1       42.4340  -23.7520  -37.5260 C.3   255  ILE255      0.0022
     57  CG2       40.7020  -24.8910  -36.0910 C.3   255  ILE255      0.0022
     58  CD1       42.7360  -22.9460  -38.7520 C.3   255  ILE255      0.0001
     59  N         39.2770  -29.4200  -35.2510 N.3   257  PHE257     -0.1241
     60  CA        39.8460  -30.0370  -34.0560 C.3   257  PHE257      0.1605
     61  C         39.7060  -31.5540  -33.9710 C.2   257  PHE257      0.2264
     62  O         38.7710  -32.1450  -34.5200 O.2   257  PHE257     -0.2867
     63  CB        39.2030  -29.4640  -32.7830 C.3   257  PHE257      0.0534
     64  CG        39.2570  -27.9650  -32.6730 C.ar  257  PHE257     -0.0203
     65  CD1       38.1740  -27.1860  -33.0710 C.ar  257  PHE257     -0.0042
     66  CD2       40.3660  -27.3330  -32.1210 C.ar  257  PHE257     -0.0042
     67  CE1       38.1940  -25.7980  -32.9130 C.ar  257  PHE257     -0.0003
     68  CE2       40.3970  -25.9470  -31.9600 C.ar  257  PHE257     -0.0003
     69  CZ        39.3080  -25.1780  -32.3560 C.ar  257  PHE257     -0.0000
     70  N         35.8070  -32.2720  -35.2330 N.3   269  GLY269     -0.1210
     71  CA        34.9140  -31.1910  -35.6250 C.3   269  GLY269      0.1956
     72  C         35.6010  -29.8380  -35.7340 C.2   269  GLY269      0.2612
     73  O         36.6620  -29.7180  -35.2620 O.2   269  GLY269     -0.2717
     74  N         35.0010  -28.8260  -36.3350 N.am  270  THR270     -0.1952
     75  CA        33.6550  -28.7890  -36.8910 C.3   270  THR270      0.1897
     76  C         33.5660  -28.2430  -38.3860 C.2   270  THR270      0.2313
     77  O         34.5370  -28.2950  -39.0860 O.2   270  THR270     -0.2863
     78  CB        32.6840  -28.1650  -35.8690 C.3   270  THR270      0.1794
     79  OG1       31.3380  -28.4080  -36.1930 O.3   270  THR270     -0.2208
     80  CG2       32.9190  -26.7230  -35.6640 C.3   270  THR270      0.0378
     81  N         31.0430  -25.3200  -41.4890 N.3   272  ASP272     -0.1239
     82  CA        30.2960  -24.0670  -41.5500 C.3   272  ASP272      0.1674
     83  C         29.3800  -24.1580  -42.7580 C.2   272  ASP272      0.2266
     84  O         29.7710  -23.7800  -43.8580 O.2   272  ASP272     -0.2867
     85  CB        31.2390  -22.8800  -41.7600 C.3   272  ASP272      0.1410
     86  CG        31.8220  -22.3590  -40.4720 C.2   272  ASP272      0.3668
     87  OD1       31.0340  -21.9490  -39.5940 O.co2 272  ASP272     -0.2456
     88  OD2       33.0660  -22.3510  -40.3430 O.co2 272  ASP272     -0.2456
     89  N         24.6540  -22.5880  -35.4030 N.3   317  ARG317     -0.1245
     90  CA        25.0740  -21.3920  -34.6760 C.3   317  ARG317      0.1563
     91  C         24.1320  -20.2430  -34.9950 C.2   317  ARG317      0.2260
     92  O         23.9070  -19.9280  -36.1620 O.2   317  ARG317     -0.2867
     93  CB        26.4740  -20.9380  -35.0910 C.3   317  ARG317      0.0307
     94  CG        27.5640  -21.9760  -35.0270 C.3   317  ARG317      0.0489
     95  CD        28.8120  -21.4170  -35.6720 C.3   317  ARG317      0.2205
     96  NE        29.9430  -22.3360  -35.6610 N.pl3 317  ARG317     -0.0865
     97  CZ        30.0870  -23.3750  -36.4770 C.cat 317  ARG317      0.5346
     98  NH1       29.1650  -23.6670  -37.3900 N.pl3 317  ARG317      0.1354
     99  NH2       31.1890  -24.1020  -36.4070 N.pl3 317  ARG317      0.1354
    100  N         31.5690  -14.1260  -34.3900 N.3   332  ARG332     -0.1245
    101  CA        31.0910  -14.9900  -33.3160 C.3   332  ARG332      0.1563
    102  C         30.7900  -14.1780  -32.0590 C.2   332  ARG332      0.2260
    103  O         30.3860  -14.7330  -31.0340 O.2   332  ARG332     -0.2867
    104  CB        32.1350  -16.0590  -32.9870 C.3   332  ARG332      0.0307
    105  CG        31.9340  -17.3830  -33.7080 C.3   332  ARG332      0.0489
    106  CD        31.9160  -17.2540  -35.2300 C.3   332  ARG332      0.2205
    107  NE        31.8630  -18.5760  -35.8440 N.pl3 332  ARG332     -0.0865
    108  CZ        31.7300  -18.8070  -37.1440 C.cat 332  ARG332      0.5346
    109  NH1       31.6320  -17.7930  -37.9970 N.pl3 332  ARG332      0.1354
    110  NH2       31.6950  -20.0620  -37.5870 N.pl3 332  ARG332      0.1354
    111  N         28.8380  -17.2500  -27.8110 N.3   354  LYS354     -0.1245
    112  CA        29.4970  -18.5410  -27.5620 C.3   354  LYS354      0.1561
    113  C         29.3140  -18.9690  -26.1020 C.2   354  LYS354      0.2260
    114  O         29.0030  -18.1470  -25.2410 O.2   354  LYS354     -0.2867
    115  CB        31.0060  -18.4310  -27.8360 C.3   354  LYS354      0.0271
    116  CG        31.3990  -18.1100  -29.2730 C.3   354  LYS354      0.0035
    117  CD        32.8940  -17.8300  -29.3960 C.3   354  LYS354      0.0206
    118  CE        33.7520  -19.0450  -29.0600 C.3   354  LYS354      0.1093
    119  NZ        33.7680  -20.0900  -30.1390 N.3   354  LYS354     -0.1314
@<TRIPOS>BOND
     1    84    83    2
     2    40    41    1
     3    83    82    1
     4    46    45    1
     5    46    47    1
     6    45    44    1
     7    44    41    1
     8    85    82    1
     9    85    86    1
    10    41    42    1
    11    82    81    1
    12    43    42    2
    13    47    48    2
    14    49    48    1
    15    42    51   am
    16    48    50    1
    17    86    88   ar
    18    86    87   ar
    19    51    52    1
    20    77    76    2
    21    58    56    1
    22    26    25    1
    23    52    53    1
    24    52    55    1
    25    76    75    1
    26    53    54    2
    27   109   108    1
    28    25    27    1
    29    25    24    2
    30   110   108    1
    31    56    55    1
    32    98    97    1
    33    55    57    1
    34   108   107    2
    35    20    19    2
    36    75    74    1
    37    75    78    1
    38    24    23    1
    39    23    22    1
    40    97    99    1
    41    97    96    2
    42    74    72   am
    43    21    22    1
    44    21    18    1
    45    79    78    1
    46    92    91    2
    47    78    80    1
    48   107   106    1
    49    19    18    1
    50    19    28   am
    51    72    71    1
    52    72    73    2
    53    95    96    1
    54    95    94    1
    55    18    17    1
    56    71    70    1
    57    31    30    2
    58    89    90    1
    59    59    60    1
    60   106   105    1
    61    93    94    1
    62    93    90    1
    63    30    29    1
    64    91    90    1
    65    29    28    1
    66    29    32    1
    67    34    36   ar
    68    34    33   ar
    69    62    61    2
    70   100   101    1
    71    36    38   ar
    72    60    61    1
    73    60    63    1
    74    32    33    1
    75   105   104    1
    76    33    35   ar
    77   101   104    1
    78   101   102    1
    79    65    67   ar
    80    65    64   ar
    81    38    39    1
    82    38    37   ar
    83    67    69   ar
    84    63    64    1
    85    64    66   ar
    86    69    68   ar
    87    35    37   ar
    88    66    68   ar
    89   102   103    2
    90     6     5    1
    91     5     2    1
    92   119   118    1
    93    16    14   ar
    94    16    15   ar
    95     2     1    1
    96     2     3    1
    97    14    12   ar
    98   117   116    1
    99   117   118    1
   100   116   115    1
   101    15    13   ar
   102     3     4    2
   103    12    13   ar
   104    12    11    1
   105   115   112    1
   106   111   112    1
   107   112   113    1
   108    11     8    1
   109     9    10    2
   110     9     8    1
   111   113   114    2
   112     8     7    1
