@<TRIPOS>MOLECULE
tmp/2r4bA00.pdb
 179 167 0 0 0
SMALL
GASTEIGER

@<TRIPOS>ATOM
      1  N         -5.7360   15.0840   -0.0530 N.3    31  LEU31      -0.1245
      2  CA        -6.0400   15.2430   -1.4740 C.3    31  LEU31       0.1561
      3  C         -5.7700   16.6690   -1.9430 C.2    31  LEU31       0.2260
      4  O         -5.2200   16.8850   -3.0230 O.2    31  LEU31      -0.2867
      5  CB        -7.4900   14.8550   -1.7660 C.3    31  LEU31       0.0270
      6  CG        -7.8600   13.3750   -1.6450 C.3    31  LEU31       0.0019
      7  CD1       -9.3640   13.2200   -1.5130 C.3    31  LEU31       0.0001
      8  CD2       -7.3380   12.5670   -2.8350 C.3    31  LEU31       0.0001
      9  N         -8.9300   18.6650    2.4150 N.3    39  VAL39      -0.1245
     10  CA        -9.6620   17.4730    1.9900 C.3    39  VAL39       0.1561
     11  C         -8.7540   16.2460    2.0780 C.2    39  VAL39       0.2260
     12  O         -7.6820   16.2110    1.4740 O.2    39  VAL39      -0.2867
     13  CB       -10.2330   17.6120    0.5520 C.3    39  VAL39       0.0252
     14  CG1      -10.8830   16.3050    0.0950 C.3    39  VAL39       0.0019
     15  CG2      -11.2290   18.7580    0.4760 C.3    39  VAL39       0.0019
     16  N        -14.1810   11.1160    1.0490 N.3    56  ALA56      -0.1245
     17  CA       -13.4040   12.3240    1.2450 C.3    56  ALA56       0.1562
     18  C        -13.9290   13.0100    2.4980 C.2    56  ALA56       0.2260
     19  O        -15.1370   13.0470    2.7390 O.2    56  ALA56      -0.2867
     20  CB       -13.5070   13.2420    0.0470 C.3    56  ALA56       0.0290
     21  N        -13.6360   16.6230    4.6990 N.3    58  LYS58      -0.1245
     22  CA       -13.2140   18.0190    4.6500 C.3    58  LYS58       0.1561
     23  C        -13.3150   18.6490    6.0230 C.2    58  LYS58       0.2260
     24  O        -14.3600   18.5840    6.6740 O.2    58  LYS58      -0.2867
     25  CB       -14.0450   18.8140    3.6430 C.3    58  LYS58       0.0271
     26  CG       -13.5520   20.2360    3.3930 C.3    58  LYS58       0.0035
     27  CD       -14.0220   20.7140    2.0330 C.3    58  LYS58       0.0206
     28  CE       -13.2790   21.9440    1.5910 C.3    58  LYS58       0.1093
     29  NZ       -13.5820   22.2610    0.1720 N.3    58  LYS58      -0.1314
     30  N        -26.6990   20.7260    1.6210 N.3    73  MET73      -0.1245
     31  CA       -25.7340   19.8440    0.9770 C.3    73  MET73       0.1570
     32  C        -26.1960   18.3880    0.9510 C.2    73  MET73       0.2261
     33  O        -25.9510   17.6710   -0.0240 O.2    73  MET73      -0.2867
     34  CB       -24.3790   19.9310    1.6710 C.3    73  MET73       0.0387
     35  CG       -23.7580   21.3130    1.7330 C.3    73  MET73       0.0595
     36  SD       -22.2280   21.2520    2.6880 S.3    73  MET73      -0.1393
     37  CE       -21.6190   22.9070    2.4150 C.3    73  MET73       0.0692
     38  N        -22.6190   16.3520   -6.1320 N.3    82  VAL82      -0.1231
     39  CA       -22.3400   15.4680   -5.0020 C.3    82  VAL82       0.1692
     40  C        -23.4170   15.6020   -3.9090 C.2    82  VAL82       0.2592
     41  O        -24.1790   16.5750   -3.8790 O.2    82  VAL82      -0.2718
     42  CB       -20.9150   15.6770   -4.4310 C.3    82  VAL82       0.0266
     43  CG1      -19.8750   15.5180   -5.5390 C.3    82  VAL82       0.0020
     44  CG2      -20.7890   17.0360   -3.7740 C.3    82  VAL82       0.0020
     45  N        -23.4840   14.6020   -3.0390 N.am   83  ARG83      -0.1966
     46  CA       -24.3840   14.5980   -1.8850 C.3    83  ARG83       0.1729
     47  C        -23.5600   14.3690   -0.6160 C.2    83  ARG83       0.2616
     48  O        -22.6770   13.5120   -0.5910 O.2    83  ARG83      -0.2715
     49  CB       -25.4200   13.4820   -2.0420 C.3    83  ARG83       0.0348
     50  CG       -26.5920   13.5620   -1.0850 C.3    83  ARG83       0.0492
     51  CD       -27.6540   12.5400   -1.4770 C.3    83  ARG83       0.2205
     52  NE       -28.9310   12.7610   -0.7910 N.pl3  83  ARG83      -0.0865
     53  CZ       -30.0410   12.0600   -1.0290 C.cat  83  ARG83       0.5346
     54  NH1      -30.0420   11.0870   -1.9420 N.pl3  83  ARG83       0.1354
     55  NH2      -31.1580   12.3330   -0.3550 N.pl3  83  ARG83       0.1354
     56  N        -23.8320   15.1410    0.4310 N.am   84  LEU84      -0.1977
     57  CA       -23.1650   14.9250    1.7100 C.3    84  LEU84       0.1596
     58  C        -23.7040   13.6470    2.3480 C.2    84  LEU84       0.2287
     59  O        -24.9170   13.4970    2.5120 O.2    84  LEU84      -0.2864
     60  CB       -23.3760   16.1290    2.6280 C.3    84  LEU84       0.0297
     61  CG       -22.5540   16.2920    3.9060 C.3    84  LEU84       0.0022
     62  CD1      -21.0710   16.4610    3.6180 C.3    84  LEU84       0.0001
     63  CD2      -23.0850   17.4900    4.6560 C.3    84  LEU84       0.0001
     64  N        -16.8600   17.3160    7.2180 N.3    95  LEU95      -0.1231
     65  CA       -17.7820   16.9460    6.1470 C.3    95  LEU95       0.1693
     66  C        -17.3090   15.6750    5.4510 C.2    95  LEU95       0.2592
     67  O        -16.1440   15.5560    5.0860 O.2    95  LEU95      -0.2718
     68  CB       -17.9200   18.0860    5.1300 C.3    95  LEU95       0.0284
     69  CG       -18.4260   19.4390    5.6390 C.3    95  LEU95       0.0019
     70  CD1      -18.4620   20.4420    4.5010 C.3    95  LEU95       0.0001
     71  CD2      -19.8030   19.3030    6.2690 C.3    95  LEU95       0.0001
     72  N        -18.2330   14.7330    5.2810 N.am   96  VAL96      -0.1966
     73  CA       -17.9370   13.4090    4.7360 C.3    96  VAL96       0.1727
     74  C        -18.8050   13.1200    3.5100 C.2    96  VAL96       0.2617
     75  O        -20.0420   13.1760    3.5570 O.2    96  VAL96      -0.2715
     76  CB       -18.1460   12.3030    5.7950 C.3    96  VAL96       0.0290
     77  CG1      -17.7530   10.9410    5.2470 C.3    96  VAL96       0.0023
     78  CG2      -17.3520   12.6100    7.0570 C.3    96  VAL96       0.0023
     79  N        -18.1340   12.7960    2.4120 N.am   97  THR97      -0.1937
     80  CA       -18.7970   12.5440    1.1490 C.3    97  THR97       0.2028
     81  C        -18.1150   11.3790    0.4520 C.2    97  THR97       0.2642
     82  O        -16.9540   11.0760    0.7340 O.2    97  THR97      -0.2714
     83  CB       -18.7890   13.8160    0.2690 C.3    97  THR97       0.1808
     84  OG1      -19.7480   13.6890   -0.7940 O.3    97  THR97      -0.2208
     85  CG2      -17.3970   14.0860   -0.2930 C.3    97  THR97       0.0379
     86  N        -18.8470   10.7170   -0.4420 N.am   98  GLN98      -0.1963
     87  CA       -18.3200    9.5940   -1.2100 C.3    98  GLN98       0.1733
     88  C        -17.0970   10.0420   -2.0150 C.2    98  GLN98       0.2616
     89  O        -17.1110   11.1010   -2.6450 O.2    98  GLN98      -0.2715
     90  CB       -19.4070    9.0460   -2.1350 C.3    98  GLN98       0.0408
     91  CG       -19.1570    7.6290   -2.6410 C.3    98  GLN98       0.0908
     92  CD       -19.8660    7.3270   -3.9590 C.2    98  GLN98       0.2608
     93  OE1      -20.9440    7.8590   -4.2450 O.2    98  GLN98      -0.2717
     94  NE2      -19.2530    6.4650   -4.7720 N.am   98  GLN98      -0.0878
     95  N        -16.0280    9.2560   -1.9670 N.am   99  LEU99      -0.1963
     96  CA       -14.8230    9.5830   -2.7200 C.3    99  LEU99       0.1728
     97  C        -15.0610    9.3300   -4.2030 C.2    99  LEU99       0.2616
     98  O        -15.6840    8.3320   -4.5780 O.2    99  LEU99      -0.2715
     99  CB       -13.6340    8.7560   -2.2240 C.3    99  LEU99       0.0311
    100  CG       -12.2580    8.9780   -2.8550 C.3    99  LEU99       0.0022
    101  CD1      -11.6530   10.3140   -2.4390 C.3    99  LEU99       0.0001
    102  CD2      -11.3340    7.8350   -2.4860 C.3    99  LEU99       0.0001
    103  N        -14.5790   10.2500   -5.0360 N.am  100  MET100     -0.1977
    104  CA       -14.6320   10.0840   -6.4790 C.3   100  MET100      0.1605
    105  C        -13.2880    9.5240   -6.9430 C.2   100  MET100      0.2287
    106  O        -12.2620   10.2150   -6.8740 O.2   100  MET100     -0.2864
    107  CB       -14.9650   11.4040   -7.1740 C.3   100  MET100      0.0413
    108  CG       -16.3240   12.0130   -6.8050 C.3   100  MET100      0.0598
    109  SD       -17.7810   11.1590   -7.4540 S.3   100  MET100     -0.1393
    110  CE       -18.2540   10.1210   -6.0760 C.3   100  MET100      0.0692
    111  N        -11.0440   11.3160   -9.3540 N.3   103  GLY103     -0.1210
    112  CA       -10.5280   12.5710   -8.8040 C.3   103  GLY103      0.1956
    113  C        -11.1190   13.8420   -9.3740 C.2   103  GLY103      0.2612
    114  O        -12.3040   13.9010   -9.6750 O.2   103  GLY103     -0.2717
    115  N        -10.2810   14.8640   -9.5110 N.am  104  CYS104     -0.1970
    116  CA       -10.7320   16.1750   -9.9600 C.3   104  CYS104      0.1712
    117  C        -10.5970   16.3170  -11.4680 C.2   104  CYS104      0.2296
    118  O         -9.6230   15.8370  -12.0550 O.2   104  CYS104     -0.2864
    119  CB        -9.9690   17.2910   -9.2390 C.3   104  CYS104      0.0983
    120  SG       -10.2060   17.3020   -7.4140 S.3   104  CYS104     -0.0798
    121  N         -7.4060   18.0400  -13.0180 N.3   107  GLU107     -0.1245
    122  CA        -6.2590   17.1260  -13.0590 C.3   107  GLU107      0.1567
    123  C         -6.4360   16.0320  -14.1050 C.2   107  GLU107      0.2260
    124  O         -5.4660   15.5870  -14.7200 O.2   107  GLU107     -0.2867
    125  CB        -6.0140   16.4880  -11.6870 C.3   107  GLU107      0.0388
    126  CG        -5.1390   17.3020  -10.7540 C.3   107  GLU107      0.1160
    127  CD        -5.7620   18.6240  -10.3560 C.2   107  GLU107      0.3649
    128  OE1       -6.9280   18.6300   -9.8950 O.co2 107  GLU107     -0.2457
    129  OE2       -5.0780   19.6610  -10.4980 O.co2 107  GLU107     -0.2457
    130  N        -13.3760   22.2850   -8.9450 N.3   149  ASN149     -0.1240
    131  CA       -14.5190   21.8550   -8.1300 C.3   149  ASN149      0.1653
    132  C        -15.5040   20.9550   -8.8840 C.2   149  ASN149      0.2266
    133  O        -16.6870   20.8670   -8.5340 O.2   149  ASN149     -0.2867
    134  CB       -15.2410   23.0670   -7.5480 C.3   149  ASN149      0.1155
    135  CG       -14.5220   23.6450   -6.3550 C.2   149  ASN149      0.2627
    136  OD1      -13.8840   22.9190   -5.5820 O.2   149  ASN149     -0.2716
    137  ND2      -14.6270   24.9560   -6.1830 N.am  149  ASN149     -0.0877
    138  N        -15.5460   16.9340  -10.0430 N.3   151  LEU151     -0.1245
    139  CA       -14.9180   15.6460   -9.7910 C.3   151  LEU151      0.1561
    140  C        -15.3790   14.5940  -10.8060 C.2   151  LEU151      0.2260
    141  O        -16.4810   14.6790  -11.3500 O.2   151  LEU151     -0.2867
    142  CB       -15.2280   15.1710   -8.3660 C.3   151  LEU151      0.0270
    143  CG       -15.2160   16.1940   -7.2220 C.3   151  LEU151      0.0019
    144  CD1      -15.7150   15.5580   -5.9430 C.3   151  LEU151      0.0001
    145  CD2      -13.8430   16.7960   -7.0010 C.3   151  LEU151      0.0001
    146  N        -18.9610   19.8290   -6.9710 N.3   161  THR161     -0.1203
    147  CA       -18.8160   19.8070   -5.5200 C.3   161  THR161      0.1994
    148  C        -18.5350   21.1910   -4.9460 C.2   161  THR161      0.2618
    149  O        -18.3190   22.1490   -5.6910 O.2   161  THR161     -0.2717
    150  CB       -17.7190   18.7920   -5.0510 C.3   161  THR161      0.1784
    151  OG1      -17.8150   18.6050   -3.6320 O.3   161  THR161     -0.2211
    152  CG2      -16.3090   19.2720   -5.4090 C.3   161  THR161      0.0376
    153  N        -18.5610   21.2680   -3.6150 N.am  162  ASP162     -0.1959
    154  CA       -18.1670   22.4480   -2.8340 C.3   162  ASP162      0.1840
    155  C        -19.1450   23.6230   -2.8900 C.2   162  ASP162      0.2622
    156  O        -18.7860   24.7570   -2.5580 O.2   162  ASP162     -0.2715
    157  CB       -16.7410   22.8960   -3.1740 C.3   162  ASP162      0.1450
    158  CG       -15.9300   23.2280   -1.9420 C.2   162  ASP162      0.3671
    159  OD1      -16.0840   22.5310   -0.9210 O.co2 162  ASP162     -0.2456
    160  OD2      -15.1260   24.1780   -1.9920 O.co2 162  ASP162     -0.2456
    161  N        -20.3830   23.3550   -3.2830 N.am  163  PHE163     -0.1974
    162  CA       -21.4060   24.3990   -3.2780 C.3   163  PHE163      0.1639
    163  C        -21.8330   24.7440   -1.8440 C.2   163  PHE163      0.2290
    164  O        -21.9580   23.8640   -0.9820 O.2   163  PHE163     -0.2864
    165  CB       -22.6110   24.0240   -4.1660 C.3   163  PHE163      0.0560
    166  CG       -23.1150   22.6160   -3.9660 C.ar  163  PHE163     -0.0200
    167  CD1      -22.7850   21.6110   -4.8770 C.ar  163  PHE163     -0.0042
    168  CD2      -23.9260   22.2940   -2.8760 C.ar  163  PHE163     -0.0042
    169  CE1      -23.2450   20.3050   -4.6990 C.ar  163  PHE163     -0.0003
    170  CE2      -24.3870   20.9980   -2.6890 C.ar  163  PHE163     -0.0003
    171  CZ       -24.0460   20.0010   -3.6080 C.ar  163  PHE163     -0.0000
    172  N        -20.2150   26.2730    0.6140 N.3   165  LEU165     -0.1245
    173  CA       -19.0940   26.5850    1.5140 C.3   165  LEU165      0.1561
    174  C        -18.6140   28.0320    1.4580 C.2   165  LEU165      0.2260
    175  O        -18.3090   28.6200    2.4960 O.2   165  LEU165     -0.2867
    176  CB       -17.9030   25.6510    1.2770 C.3   165  LEU165      0.0270
    177  CG       -17.8670   24.2840    1.9570 C.3   165  LEU165      0.0019
    178  CD1      -16.4420   23.8060    1.9570 C.3   165  LEU165      0.0001
    179  CD2      -18.3900   24.3540    3.3760 C.3   165  LEU165      0.0001
@<TRIPOS>BOND
     1   124   123    2
     2   123   122    1
     3   122   121    1
     4   122   125    1
     5   118   117    2
     6   125   126    1
     7   117   116    1
     8   141   140    2
     9   140   139    1
    10   126   127    1
    11   129   127   ar
    12   127   128   ar
    13   138   139    1
    14   116   115    1
    15   116   119    1
    16   139   142    1
    17   114   113    2
    18   115   113   am
    19   113   112    1
    20   111   112    1
    21   119   120    1
    22   130   131    1
    23   132   133    2
    24   132   131    1
    25   142   143    1
    26   131   134    1
    27   134   135    1
    28   109   108    1
    29   109   110    1
    30   143   145    1
    31   143   144    1
    32   107   108    1
    33   107   104    1
    34   146   147    1
    35   105   106    2
    36   105   104    1
    37   104   103    1
    38   135   137   am
    39   135   136    2
    40    38    39    1
    41   149   148    2
    42    43    42    1
    43   147   150    1
    44   147   148    1
    45   152   150    1
    46   150   151    1
    47   103    97   am
    48    39    42    1
    49    39    40    1
    50   148   153   am
    51   167   169   ar
    52   167   166   ar
    53    94    92   am
    54   169   171   ar
    55    98    97    2
    56    42    44    1
    57    93    92    2
    58    97    96    1
    59   165   166    1
    60   165   162    1
    61   166   168   ar
    62    92    91    1
    63    40    41    2
    64    40    45   am
    65   153   154    1
    66   171   170   ar
    67   161   162    1
    68   161   155   am
    69   162   163    1
    70   157   154    1
    71   157   158    1
    72    45    46    1
    73     4     3    2
    74   155   154    1
    75   155   156    2
    76   168   170   ar
    77   100   102    1
    78   100   101    1
    79   100    99    1
    80     8     6    1
    81    96    99    1
    82    96    95    1
    83    89    88    2
    84    91    90    1
    85    90    87    1
    86    49    46    1
    87    49    50    1
    88    88    95   am
    89    88    87    1
    90   160   158   ar
    91     3     2    1
    92    54    53    1
    93   158   159   ar
    94    46    47    1
    95   163   164    2
    96     5     6    1
    97     5     2    1
    98     6     7    1
    99    51    50    1
   100    51    52    1
   101     2     1    1
   102    87    86    1
   103    53    52    2
   104    53    55    1
   105    84    83    1
   106    47    48    2
   107    47    56   am
   108    86    81   am
   109    85    83    1
   110    33    32    2
   111    20    17    1
   112    14    13    1
   113    29    28    1
   114    83    80    1
   115    56    57    1
   116    81    82    2
   117    81    80    1
   118    15    13    1
   119    13    10    1
   120   172   173    1
   121    32    31    1
   122    31    30    1
   123    31    34    1
   124    16    17    1
   125    80    79    1
   126    17    18    1
   127   176   173    1
   128   176   177    1
   129   174   173    1
   130   174   175    2
   131    12    11    2
   132    28    27    1
   133    34    35    1
   134    57    58    1
   135    57    60    1
   136    35    36    1
   137   177   178    1
   138   177   179    1
   139    10    11    1
   140    10     9    1
   141    27    26    1
   142    58    59    2
   143    79    74   am
   144    37    36    1
   145    18    19    2
   146    60    61    1
   147    26    25    1
   148    74    75    2
   149    74    73    1
   150    62    61    1
   151    25    22    1
   152    61    63    1
   153    70    69    1
   154    22    21    1
   155    22    23    1
   156    73    72    1
   157    73    76    1
   158    67    66    2
   159    68    69    1
   160    68    65    1
   161    77    76    1
   162    72    66   am
   163    66    65    1
   164    69    71    1
   165    76    78    1
   166    23    24    2
   167    65    64    1
