@<TRIPOS>MOLECULE
tmp/2r4fB01.pdb
 104 95 0 0 0
SMALL
GASTEIGER

@<TRIPOS>ATOM
      1  N        104.5480  -10.1360    6.5370 N.3    73  GLU73      -0.1245
      2  CA       105.2460  -11.4240    6.5130 C.3    73  GLU73       0.1567
      3  C        104.7840  -12.2440    5.3140 C.2    73  GLU73       0.2260
      4  O        103.7290  -11.9670    4.7380 O.2    73  GLU73      -0.2867
      5  CB       105.0130  -12.2070    7.8120 C.3    73  GLU73       0.0388
      6  CG       105.4420  -11.4840    9.0880 C.3    73  GLU73       0.1160
      7  CD       104.4010  -10.4900    9.5790 C.2    73  GLU73       0.3649
      8  OE1      103.1970  -10.8280    9.5750 O.co2  73  GLU73      -0.2457
      9  OE2      104.7890   -9.3690    9.9710 O.co2  73  GLU73      -0.2457
     10  N         93.3380    1.2460   25.6250 N.3   135  ARG135     -0.1245
     11  CA        93.3380   -0.2080   25.6770 C.3   135  ARG135      0.1563
     12  C         92.4790   -0.6240   26.8670 C.2   135  ARG135      0.2260
     13  O         92.6020   -0.0560   27.9550 O.2   135  ARG135     -0.2867
     14  CB        94.7690   -0.7600   25.7860 C.3   135  ARG135      0.0307
     15  CG        94.8830   -2.2890   25.8320 C.3   135  ARG135      0.0489
     16  CD        94.2580   -2.9660   24.6110 C.3   135  ARG135      0.2205
     17  NE        95.1720   -3.0690   23.4760 N.pl3 135  ARG135     -0.0865
     18  CZ        94.8130   -3.4380   22.2480 C.cat 135  ARG135      0.5346
     19  NH1       95.7240   -3.5060   21.2880 N.pl3 135  ARG135      0.1354
     20  NH2       93.5450   -3.7250   21.9690 N.pl3 135  ARG135      0.1354
     21  N         98.7900    2.3650   19.7650 N.3   202  MET202     -0.1230
     22  CA        98.3440    1.0410   20.2130 C.3   202  MET202      0.1702
     23  C         99.4290    0.2350   20.9310 C.2   202  MET202      0.2592
     24  O         99.1830   -0.3090   22.0070 O.2   202  MET202     -0.2718
     25  CB        97.7280    0.2330   19.0640 C.3   202  MET202      0.0401
     26  CG        96.2150    0.4100   18.9160 C.3   202  MET202      0.0596
     27  SD        95.1940   -0.7130   19.9010 S.3   202  MET202     -0.1393
     28  CE        95.4870   -0.1030   21.5640 C.3   202  MET202      0.0692
     29  N        100.6230    0.1770   20.3440 N.am  203  ASN203     -0.1974
     30  CA       101.7480   -0.5260   20.9600 C.3   203  ASN203      0.1688
     31  C        102.1910    0.1290   22.2690 C.2   203  ASN203      0.2292
     32  O        102.4910   -0.5610   23.2450 O.2   203  ASN203     -0.2864
     33  CB       102.9280   -0.6240   19.9850 C.3   203  ASN203      0.1181
     34  CG       104.0340   -1.5370   20.4910 C.2   203  ASN203      0.2629
     35  OD1      103.7820   -2.6680   20.9140 O.2   203  ASN203     -0.2716
     36  ND2      105.2690   -1.0500   20.4410 N.am  203  ASN203     -0.0877
     37  N         99.4350   -0.3610   25.0310 N.3   206  SER206     -0.1217
     38  CA        99.4490   -1.7670   25.4370 C.3   206  SER206      0.1889
     39  C        100.6140   -2.0680   26.3810 C.2   206  SER206      0.2288
     40  O        100.4430   -2.7740   27.3750 O.2   206  SER206     -0.2866
     41  CB        99.5000   -2.6870   24.2150 C.3   206  SER206      0.2089
     42  OG        98.3530   -2.5140   23.3980 O.3   206  SER206     -0.2183
     43  N        100.1630   -3.2030   30.2860 N.3   210  GLU210     -0.1245
     44  CA       100.7860   -4.3970   30.8620 C.3   210  GLU210      0.1567
     45  C        101.5380   -4.0850   32.1570 C.2   210  GLU210      0.2260
     46  O        101.4340   -4.8300   33.1340 O.2   210  GLU210     -0.2867
     47  CB       101.7230   -5.0620   29.8480 C.3   210  GLU210      0.0388
     48  CG       101.0090   -5.8230   28.7390 C.3   210  GLU210      0.1160
     49  CD       101.9700   -6.4580   27.7470 C.2   210  GLU210      0.3649
     50  OE1      102.7720   -5.7240   27.1280 O.co2 210  GLU210     -0.2457
     51  OE2      101.9170   -7.6940   27.5800 O.co2 210  GLU210     -0.2457
     52  N         94.7870   -8.7880   27.7630 N.3   228  VAL228     -0.1231
     53  CA        95.2430   -7.3920   27.7020 C.3   228  VAL228      0.1692
     54  C         94.2530   -6.5300   26.8930 C.2   228  VAL228      0.2592
     55  O         94.1710   -5.3150   27.0840 O.2   228  VAL228     -0.2718
     56  CB        96.7340   -7.2710   27.2110 C.3   228  VAL228      0.0266
     57  CG1       96.8560   -7.5620   25.7170 C.3   228  VAL228      0.0020
     58  CG2       97.3110   -5.9010   27.5510 C.3   228  VAL228      0.0020
     59  N         93.5030   -7.1800   26.0050 N.am  229  SER229     -0.1952
     60  CA        92.3510   -6.5610   25.3610 C.3   229  SER229      0.1924
     61  C         91.0970   -7.3750   25.6410 C.2   229  SER229      0.2314
     62  O         90.9720   -8.5170   25.1930 O.2   229  SER229     -0.2863
     63  CB        92.5550   -6.4220   23.8530 C.3   229  SER229      0.2116
     64  OG        91.3590   -5.9600   23.2390 O.3   229  SER229     -0.2180
     65  N         88.1490   -6.1610   24.7060 N.3   231  ASN231     -0.1240
     66  CA        87.2200   -5.4560   23.8030 C.3   231  ASN231      0.1653
     67  C         86.5670   -4.2030   24.3940 C.2   231  ASN231      0.2266
     68  O         85.5430   -3.7300   23.8930 O.2   231  ASN231     -0.2867
     69  CB        86.1560   -6.4110   23.2380 C.3   231  ASN231      0.1155
     70  CG        86.6800   -7.2660   22.0990 C.2   231  ASN231      0.2627
     71  OD1       87.8560   -7.2010   21.7430 O.2   231  ASN231     -0.2716
     72  ND2       85.8010   -8.0720   21.5180 N.am  231  ASN231     -0.0877
     73  N         88.3100   -1.3930   24.6830 N.3   233  CYS233     -0.1235
     74  CA        89.1350   -0.3050   24.1510 C.3   233  CYS233      0.1677
     75  C         88.3160    0.8130   23.4670 C.2   233  CYS233      0.2270
     76  O         88.3820    1.9560   23.9160 O.2   233  CYS233     -0.2867
     77  CB        90.2490   -0.8440   23.2380 C.3   233  CYS233      0.0956
     78  SG        90.8930   -2.4650   23.7180 S.3   233  CYS233     -0.0801
     79  N         88.9770   -1.6040   20.0050 N.3   235  ASP235     -0.1225
     80  CA        89.7870   -1.5330   18.7950 C.3   235  ASP235      0.1805
     81  C         89.1950   -2.3520   17.6530 C.2   235  ASP235      0.2598
     82  O         88.9830   -3.5580   17.7890 O.2   235  ASP235     -0.2718
     83  CB        91.2240   -1.9880   19.0830 C.3   235  ASP235      0.1424
     84  CG        92.1870   -1.6450   17.9570 C.2   235  ASP235      0.3668
     85  OD1       92.1590   -0.4960   17.4660 O.co2 235  ASP235     -0.2456
     86  OD2       92.9810   -2.5290   17.5670 O.co2 235  ASP235     -0.2456
     87  N         88.9240   -1.6750   16.5370 N.am  236  LYS236     -0.1966
     88  CA        88.5360   -2.3140   15.2670 C.3   236  LYS236      0.1728
     89  C         87.1820   -3.0390   15.2810 C.2   236  LYS236      0.2616
     90  O         86.8970   -3.8600   14.4040 O.2   236  LYS236     -0.2715
     91  CB        89.6640   -3.2160   14.7390 C.3   236  LYS236      0.0311
     92  CG        90.9220   -2.4430   14.3660 C.3   236  LYS236      0.0038
     93  CD        92.1160   -3.3570   14.1610 C.3   236  LYS236      0.0206
     94  CE        93.3620   -2.5450   13.8410 C.3   236  LYS236      0.1093
     95  NZ        94.5600   -3.3990   13.6120 N.3   236  LYS236     -0.1314
     96  N         86.3590   -2.7340   16.2800 N.am  237  LYS237     -0.1977
     97  CA        84.9670   -3.1810   16.3180 C.3   237  LYS237      0.1596
     98  C         84.0840   -1.9820   16.6390 C.2   237  LYS237      0.2287
     99  O         84.5040   -1.0940   17.3880 O.2   237  LYS237     -0.2864
    100  CB        84.7530   -4.2660   17.3800 C.3   237  LYS237      0.0298
    101  CG        85.2230   -5.6690   16.9980 C.3   237  LYS237      0.0038
    102  CD        86.6910   -5.9090   17.3460 C.3   237  LYS237      0.0206
    103  CE        86.9520   -5.7820   18.8460 C.3   237  LYS237      0.1093
    104  NZ        88.3850   -6.0310   19.1840 N.3   237  LYS237     -0.1314
@<TRIPOS>BOND
     1     4     3    2
     2     3     2    1
     3     2     1    1
     4     2     5    1
     5     5     6    1
     6     6     7    1
     7     8     7   ar
     8     7     9   ar
     9    95    94    1
    10    94    93    1
    11    93    92    1
    12    92    91    1
    13    90    89    2
    14    91    88    1
    15    88    89    1
    16    88    87    1
    17    89    96   am
    18    96    97    1
    19    97    98    1
    20    97   100    1
    21    87    81   am
    22    98    99    2
    23   101   102    1
    24   101   100    1
    25   102   103    1
    26    85    84   ar
    27    86    84   ar
    28    81    82    2
    29    81    80    1
    30    84    83    1
    31    80    83    1
    32    80    79    1
    33   103   104    1
    34    26    25    1
    35    26    27    1
    36    25    22    1
    37    21    22    1
    38    27    28    1
    39    33    34    1
    40    33    30    1
    41    22    23    1
    42    29    23   am
    43    29    30    1
    44    36    34   am
    45    34    35    2
    46    23    24    2
    47    30    31    1
    48    19    18    1
    49    72    70   am
    50    71    70    2
    51    20    18    1
    52    70    69    1
    53    18    17    2
    54    31    32    2
    55    77    78    1
    56    77    74    1
    57    69    66    1
    58    64    63    1
    59    42    41    1
    60    75    76    2
    61    75    74    1
    62    17    16    1
    63    66    67    1
    64    66    65    1
    65    63    60    1
    66    68    67    2
    67    74    73    1
    68    41    38    1
    69    16    15    1
    70    37    38    1
    71    62    61    2
    72    60    61    1
    73    60    59    1
    74    38    39    1
    75    10    11    1
    76    11    14    1
    77    11    12    1
    78    57    56    1
    79    14    15    1
    80    59    54   am
    81    39    40    2
    82    12    13    2
    83    54    55    2
    84    54    53    1
    85    50    49   ar
    86    56    58    1
    87    56    53    1
    88    51    49   ar
    89    53    52    1
    90    49    48    1
    91    48    47    1
    92    47    44    1
    93    43    44    1
    94    44    45    1
    95    45    46    2
