@<TRIPOS>MOLECULE
tmp/2r4fB00.pdb
 108 101 0 0 0
SMALL
GASTEIGER

@<TRIPOS>ATOM
      1  N         87.4570    3.3800   -6.1590 N.3   104  GLU104     -0.1231
      2  CA        86.0700    3.7640   -6.4130 C.3   104  GLU104      0.1699
      3  C         85.9930    5.0120   -7.2890 C.2   104  GLU104      0.2593
      4  O         86.3750    6.1080   -6.8650 O.2   104  GLU104     -0.2718
      5  CB        85.2900    3.9790   -5.1100 C.3   104  GLU104      0.0402
      6  CG        83.8410    4.4020   -5.3550 C.3   104  GLU104      0.1161
      7  CD        82.9990    4.5190   -4.0960 C.2   104  GLU104      0.3649
      8  OE1       83.5560    4.5580   -2.9790 O.co2 104  GLU104     -0.2457
      9  OE2       81.7600    4.5780   -4.2360 O.co2 104  GLU104     -0.2457
     10  N         85.4910    4.8300   -8.5080 N.am  105  GLY105     -0.1942
     11  CA        85.2980    5.9310   -9.4480 C.3   105  GLY105      0.2014
     12  C         84.3960    7.0160   -8.8930 C.2   105  GLY105      0.2639
     13  O         83.3880    6.7240   -8.2420 O.2   105  GLY105     -0.2714
     14  N         84.7840    8.2660   -9.1510 N.am  106  CYS106     -0.1953
     15  CA        84.0580    9.4740   -8.7230 C.3   106  CYS106      0.1843
     16  C         84.3500    9.9490   -7.2940 C.2   106  CYS106      0.2625
     17  O         83.9890   11.0700   -6.9390 O.2   106  CYS106     -0.2714
     18  CB        82.5440    9.3460   -8.9440 C.3   106  CYS106      0.0997
     19  SG        82.0590    9.2370  -10.6720 S.3   106  CYS106     -0.0797
     20  N         85.0020    9.1160   -6.4820 N.am  107  LEU107     -0.1977
     21  CA        85.2690    9.4830   -5.0870 C.3   107  LEU107      0.1596
     22  C         86.1850   10.7010   -4.9670 C.2   107  LEU107      0.2287
     23  O         85.8240   11.6840   -4.3160 O.2   107  LEU107     -0.2864
     24  CB        85.8250    8.3000   -4.2780 C.3   107  LEU107      0.0297
     25  CG        86.0960    8.5620   -2.7860 C.3   107  LEU107      0.0022
     26  CD1       84.8550    9.1010   -2.0660 C.3   107  LEU107      0.0001
     27  CD2       86.6220    7.3120   -2.0960 C.3   107  LEU107      0.0001
     28  N         87.1030   12.8560   -7.3570 N.3   109  ALA109     -0.1231
     29  CA        86.4940   13.9760   -8.0770 C.3   109  ALA109      0.1694
     30  C         85.3500   14.6250   -7.2950 C.2   109  ALA109      0.2592
     31  O         85.2270   15.8520   -7.2770 O.2   109  ALA109     -0.2718
     32  CB        86.0190   13.5310   -9.4550 C.3   109  ALA109      0.0304
     33  N         84.5260   13.8030   -6.6440 N.am  110  SER110     -0.1952
     34  CA        83.4290   14.3110   -5.8200 C.3   110  SER110      0.1924
     35  C         83.9610   15.0640   -4.6030 C.2   110  SER110      0.2314
     36  O         83.5190   16.1770   -4.3180 O.2   110  SER110     -0.2863
     37  CB        82.4960   13.1790   -5.3850 C.3   110  SER110      0.2116
     38  OG        81.3600   13.6820   -4.7060 O.3   110  SER110     -0.2180
     39  N         85.1550   18.4010   -5.5050 N.3   113  ARG113     -0.1245
     40  CA        84.0690   19.3700   -5.6550 C.3   113  ARG113      0.1563
     41  C         83.6720   19.9560   -4.3000 C.2   113  ARG113      0.2260
     42  O         83.4050   21.1530   -4.1900 O.2   113  ARG113     -0.2867
     43  CB        82.8560   18.7390   -6.3480 C.3   113  ARG113      0.0307
     44  CG        81.7610   19.7370   -6.7010 C.3   113  ARG113      0.0489
     45  CD        80.6070   19.0960   -7.4550 C.3   113  ARG113      0.2205
     46  NE        79.7730   18.2530   -6.5990 N.pl3 113  ARG113     -0.0865
     47  CZ        78.5090   17.9290   -6.8610 C.cat 113  ARG113      0.5346
     48  NH1       77.8360   17.1530   -6.0210 N.pl3 113  ARG113      0.1354
     49  NH2       77.9110   18.3830   -7.9580 N.pl3 113  ARG113      0.1354
     50  N         68.0610   11.8290    6.0790 N.3   280  LYS280     -0.1245
     51  CA        68.9950   10.7510    5.7580 C.3   280  LYS280      0.1561
     52  C         69.9710   10.5090    6.9110 C.2   280  LYS280      0.2260
     53  O         70.0080    9.4180    7.4810 O.2   280  LYS280     -0.2867
     54  CB        69.7540   11.0560    4.4600 C.3   280  LYS280      0.0271
     55  CG        70.9070   10.1100    4.1450 C.3   280  LYS280      0.0035
     56  CD        71.8120   10.6960    3.0710 C.3   280  LYS280      0.0206
     57  CE        73.0820    9.8770    2.8910 C.3   280  LYS280      0.1093
     58  NZ        72.8050    8.5380    2.2960 N.3   280  LYS280     -0.1314
     59  N         76.9470   10.6180    5.6460 N.3   296  ALA296     -0.1231
     60  CA        76.7250   10.0630    4.3160 C.3   296  ALA296      0.1694
     61  C         77.7790    9.0210    3.9420 C.2   296  ALA296      0.2592
     62  O         77.4410    7.8640    3.6860 O.2   296  ALA296     -0.2718
     63  CB        76.6670   11.1750    3.2750 C.3   296  ALA296      0.0304
     64  N         79.0500    9.4280    3.9080 N.am  297  HIS297     -0.1976
     65  CA        80.1350    8.5120    3.5310 C.3   297  HIS297      0.1656
     66  C         81.5080    8.8900    4.1030 C.2   297  HIS297      0.2291
     67  O         82.5220    8.8330    3.4010 O.2   297  HIS297     -0.2864
     68  CB        80.1920    8.3320    2.0010 C.3   297  HIS297      0.0771
     69  CG        80.6940    9.5320    1.2560 C.ar  297  HIS297      0.0820
     70  ND1       81.5130    9.4280    0.1530 N.ar  297  HIS297     -0.2267
     71  CD2       80.4980   10.8580    1.4540 C.ar  297  HIS297      0.1154
     72  CE1       81.7970   10.6360   -0.2990 C.ar  297  HIS297      0.1986
     73  NE2       81.1940   11.5220    0.4730 N.ar  297  HIS297     -0.2212
     74  N         84.3610    6.5050    3.3170 N.3   300  ASN300     -0.1240
     75  CA        85.0340    6.6320    2.0210 C.3   300  ASN300      0.1653
     76  C         86.2880    7.4960    2.0900 C.2   300  ASN300      0.2266
     77  O         87.3410    7.1240    1.5700 O.2   300  ASN300     -0.2867
     78  CB        84.0770    7.1980    0.9710 C.3   300  ASN300      0.1155
     79  CG        83.3170    6.1220    0.2270 C.2   300  ASN300      0.2627
     80  OD1       83.7090    4.9540    0.2220 O.2   300  ASN300     -0.2716
     81  ND2       82.2290    6.5150   -0.4270 N.am  300  ASN300     -0.0877
     82  N         79.6200   17.2310   -1.0700 N.3   397  SER397     -0.1202
     83  CA        79.4670   16.8270   -2.4660 C.3   397  SER397      0.2020
     84  C         78.4770   15.6810   -2.6680 C.2   397  SER397      0.2618
     85  O         77.6410   15.7410   -3.5710 O.2   397  SER397     -0.2717
     86  CB        80.8220   16.4860   -3.0800 C.3   397  SER397      0.2103
     87  OG        80.7130   16.3300   -4.4850 O.3   397  SER397     -0.2182
     88  N         78.5690   14.6390   -1.8390 N.am  398  LEU398     -0.1979
     89  CA        77.6470   13.5060   -1.9520 C.3   398  LEU398      0.1596
     90  C         76.2150   13.8960   -1.5900 C.2   398  LEU398      0.2287
     91  O         75.2720   13.5000   -2.2760 O.2   398  LEU398     -0.2864
     92  CB        78.1030   12.2940   -1.1220 C.3   398  LEU398      0.0297
     93  CG        77.1740   11.0660   -1.1940 C.3   398  LEU398      0.0022
     94  CD1       76.9960   10.5590   -2.6260 C.3   398  LEU398      0.0001
     95  CD2       77.6420    9.9350   -0.2960 C.3   398  LEU398      0.0001
     96  N         74.7550   15.6890   -4.4490 N.3   401  ALA401     -0.1231
     97  CA        74.4200   14.7250   -5.4970 C.3   401  ALA401      0.1694
     98  C         73.1050   14.0030   -5.2000 C.2   401  ALA401      0.2591
     99  O         72.3070   13.7530   -6.1050 O.2   401  ALA401     -0.2718
    100  CB        75.5500   13.7240   -5.6740 C.3   401  ALA401      0.0304
    101  N         72.8860   13.6790   -3.9270 N.am  402  LEU402     -0.1980
    102  CA        71.6670   12.9960   -3.5010 C.3   402  LEU402      0.1596
    103  C         70.4580   13.9300   -3.4970 C.2   402  LEU402      0.2287
    104  O         69.3560   13.5240   -3.8760 O.2   402  LEU402     -0.2864
    105  CB        71.8580   12.3580   -2.1200 C.3   402  LEU402      0.0297
    106  CG        72.8580   11.2010   -2.0180 C.3   402  LEU402      0.0022
    107  CD1       73.2240   10.9480   -0.5670 C.3   402  LEU402      0.0001
    108  CD2       72.3260    9.9270   -2.6730 C.3   402  LEU402      0.0001
@<TRIPOS>BOND
     1    19    18    1
     2    32    29    1
     3    11    12    1
     4    11    10    1
     5    14    12   am
     6    14    15    1
     7    18    15    1
     8    12    13    2
     9    15    16    1
    10    10     3   am
    11    29    28    1
    12    29    30    1
    13    49    47    1
    14    45    44    1
    15    45    46    1
    16    30    31    2
    17    30    33   am
    18    16    17    2
    19    16    20   am
    20     3     4    2
    21     3     2    1
    22    47    46    2
    23    47    48    1
    24    44    43    1
    25    33    34    1
    26    20    21    1
    27     2     1    1
    28     2     5    1
    29    43    40    1
    30    99    98    2
    31    34    37    1
    32    34    35    1
    33   100    97    1
    34    40    39    1
    35    40    41    1
    36    97    98    1
    37    97    96    1
    38    37    38    1
    39     6     5    1
    40     6     7    1
    41    98   101   am
    42    21    22    1
    43    21    24    1
    44    22    23    2
    45    35    36    2
    46    87    86    1
    47    41    42    2
    48    24    25    1
    49     9     7   ar
    50     7     8   ar
    51   101   102    1
    52   104   103    2
    53    85    84    2
    54   102   103    1
    55   102   105    1
    56    86    83    1
    57    25    27    1
    58    25    26    1
    59   108   106    1
    60    84    83    1
    61    84    88   am
    62    94    93    1
    63    83    82    1
    64    91    90    2
    65   105   106    1
    66   106   107    1
    67    89    88    1
    68    89    90    1
    69    89    92    1
    70    93    92    1
    71    93    95    1
    72    81    79   am
    73    72    70   ar
    74    72    73   ar
    75    70    69   ar
    76    80    79    2
    77    79    78    1
    78    73    71   ar
    79    78    75    1
    80    69    71   ar
    81    69    68    1
    82    77    76    2
    83    68    65    1
    84    75    76    1
    85    75    74    1
    86    58    57    1
    87    57    56    1
    88    56    55    1
    89    63    60    1
    90    67    66    2
    91    65    64    1
    92    65    66    1
    93    62    61    2
    94    64    61   am
    95    61    60    1
    96    55    54    1
    97    60    59    1
    98    54    51    1
    99    51    50    1
   100    51    52    1
   101    52    53    2
