@<TRIPOS>MOLECULE
tmp/2r4jB04.pdb
 126 120 0 0 0
SMALL
GASTEIGER

@<TRIPOS>ATOM
      1  N         25.1560   29.3970  126.5010 N.3    45  SER45      -0.1217
      2  CA        23.8600   28.6350  126.5240 C.3    45  SER45       0.1889
      3  C         23.3500   28.4490  125.0770 C.2    45  SER45       0.2288
      4  O         22.3270   27.7550  124.8230 O.2    45  SER45      -0.2866
      5  CB        22.7760   29.3370  127.4010 C.3    45  SER45       0.2089
      6  OG        23.3320   29.5030  128.7110 O.3    45  SER45      -0.2183
      7  N         19.3290   35.6690  121.9810 N.3    49  HIS49      -0.1241
      8  CA        18.2040   36.0590  122.7900 C.3    49  HIS49       0.1621
      9  C         18.2420   37.5500  122.9680 C.2    49  HIS49       0.2264
     10  O         19.2850   38.1540  122.7620 O.2    49  HIS49      -0.2867
     11  CB        18.1380   35.2510  124.1140 C.3    49  HIS49       0.0745
     12  CG        19.2120   35.5670  125.1290 C.ar   49  HIS49       0.0817
     13  ND1       20.5540   35.6790  124.8200 N.ar   49  HIS49      -0.2268
     14  CD2       19.1360   35.7020  126.4700 C.ar   49  HIS49       0.1154
     15  CE1       21.2510   35.9120  125.9190 C.ar   49  HIS49       0.1986
     16  NE2       20.4140   35.9240  126.9340 N.ar   49  HIS49      -0.2212
     17  N         15.3940   38.6990  131.1770 N.3    53  ARG53      -0.1231
     18  CA        15.6540   39.1200  132.5900 C.3    53  ARG53       0.1694
     19  C         16.3680   40.4680  132.7560 C.2    53  ARG53       0.2592
     20  O         16.3510   41.0350  133.8610 O.2    53  ARG53      -0.2718
     21  CB        16.4370   38.0290  133.3430 C.3    53  ARG53       0.0321
     22  CG        17.8760   37.8390  132.8870 C.3    53  ARG53       0.0489
     23  CD        18.6130   36.7430  133.7400 C.3    53  ARG53       0.2205
     24  NE        20.0410   37.0200  133.7150 N.pl3  53  ARG53      -0.0865
     25  CZ        20.6760   37.7340  134.6470 C.cat  53  ARG53       0.5346
     26  NH1       20.0000   38.1750  135.7040 N.pl3  53  ARG53       0.1354
     27  NH2       21.9810   37.9880  134.5360 N.pl3  53  ARG53       0.1354
     28  N         17.0100   40.9620  131.6940 N.am   54  TYR54      -0.1976
     29  CA        17.7020   42.2610  131.7540 C.3    54  TYR54       0.1639
     30  C         16.6960   43.4280  131.7670 C.2    54  TYR54       0.2290
     31  O         17.0300   44.5260  132.1620 O.2    54  TYR54      -0.2864
     32  CB        18.7470   42.4590  130.6490 C.3    54  TYR54       0.0560
     33  CG        19.6790   41.2740  130.4030 C.ar   54  TYR54      -0.0198
     34  CD1       20.0340   40.4140  131.4280 C.ar   54  TYR54      -0.0009
     35  CD2       20.2060   41.0360  129.1470 C.ar   54  TYR54      -0.0009
     36  CE1       20.8520   39.3320  131.1940 C.ar   54  TYR54       0.0417
     37  CE2       21.0180   39.9730  128.9120 C.ar   54  TYR54       0.0417
     38  CZ        21.3370   39.1280  129.9300 C.ar   54  TYR54       0.1957
     39  OH        22.1480   38.0190  129.6950 O.3    54  TYR54      -0.2866
     40  N         16.9780   34.2380  139.6190 N.3   249  ARG249     -0.1231
     41  CA        17.7040   33.8430  138.4330 C.3   249  ARG249      0.1694
     42  C         16.8300   32.8850  137.6400 C.2   249  ARG249      0.2592
     43  O         15.9730   32.1910  138.1880 O.2   249  ARG249     -0.2718
     44  CB        19.0200   33.1620  138.8130 C.3   249  ARG249      0.0321
     45  CG        20.1030   34.1200  139.2810 C.3   249  ARG249      0.0489
     46  CD        21.4720   33.4610  139.2580 C.3   249  ARG249      0.2205
     47  NE        21.9780   33.2980  137.8980 N.pl3 249  ARG249     -0.0865
     48  CZ        21.9320   32.1590  137.2160 C.cat 249  ARG249      0.5346
     49  NH1       21.4010   31.0750  137.7650 N.pl3 249  ARG249      0.1354
     50  NH2       22.4170   32.1020  135.9830 N.pl3 249  ARG249      0.1354
     51  N         17.0640   32.8670  136.3390 N.am  250  ILE250     -0.1966
     52  CA        16.3060   32.0740  135.3910 C.3   250  ILE250      0.1727
     53  C         17.2640   30.9550  134.9510 C.2   250  ILE250      0.2616
     54  O         18.4550   31.1810  134.8660 O.2   250  ILE250     -0.2715
     55  CB        15.9260   33.1230  134.3310 C.3   250  ILE250      0.0290
     56  CG1       14.4580   33.4410  134.4210 C.3   250  ILE250      0.0022
     57  CG2       16.5790   33.0050  132.9210 C.3   250  ILE250      0.0023
     58  CD1       14.2950   34.8860  134.5420 C.3   250  ILE250      0.0001
     59  N         16.7690   29.7200  134.8600 N.am  251  VAL251     -0.1963
     60  CA        17.5550   28.6430  134.3420 C.3   251  VAL251      0.1727
     61  C         16.8010   27.9920  133.1520 C.2   251  VAL251      0.2616
     62  O         15.5780   27.8400  133.2210 O.2   251  VAL251     -0.2715
     63  CB        17.8360   27.6920  135.4580 C.3   251  VAL251      0.0290
     64  CG1       18.3190   26.3150  134.9730 C.3   251  VAL251      0.0023
     65  CG2       18.7890   28.3610  136.5130 C.3   251  VAL251      0.0023
     66  N         17.5310   27.6600  132.0690 N.am  252  PHE252     -0.1974
     67  CA        17.0120   27.0090  130.8350 C.3   252  PHE252      0.1639
     68  C         17.1150   25.5140  130.8190 C.2   252  PHE252      0.2290
     69  O         18.0780   24.9690  131.3430 O.2   252  PHE252     -0.2864
     70  CB        17.7590   27.4930  129.6270 C.3   252  PHE252      0.0560
     71  CG        17.6690   28.9800  129.4570 C.ar  252  PHE252     -0.0200
     72  CD1       18.7260   29.7970  129.7940 C.ar  252  PHE252     -0.0042
     73  CD2       16.4880   29.5620  129.0550 C.ar  252  PHE252     -0.0042
     74  CE1       18.6210   31.1920  129.6260 C.ar  252  PHE252     -0.0003
     75  CE2       16.3720   30.9320  128.9000 C.ar  252  PHE252     -0.0003
     76  CZ        17.4480   31.7610  129.1950 C.ar  252  PHE252     -0.0000
     77  N         21.1050   24.8890  132.2460 N.3   263  GLY263     -0.1210
     78  CA        22.0360   25.8860  132.7310 C.3   263  GLY263      0.1956
     79  C         21.3930   27.2440  132.7920 C.2   263  GLY263      0.2612
     80  O         20.3110   27.3700  132.3110 O.2   263  GLY263     -0.2717
     81  N         22.0520   28.2640  133.3300 N.am  264  THR264     -0.1952
     82  CA        23.3830   28.2030  133.8970 C.3   264  THR264      0.1897
     83  C         23.3830   28.7630  135.3160 C.2   264  THR264      0.2313
     84  O         22.3820   28.8110  135.9740 O.2   264  THR264     -0.2863
     85  CB        24.4100   29.1270  133.2190 C.3   264  THR264      0.1794
     86  OG1       23.8640   30.0160  132.2740 O.3   264  THR264     -0.2208
     87  CG2       25.5540   28.5030  132.8140 C.3   264  THR264      0.0378
     88  N         25.9330   31.5890  138.0970 N.3   266  ASP266     -0.1239
     89  CA        26.5510   32.9440  138.1600 C.3   266  ASP266      0.1674
     90  C         27.5140   32.9970  139.3450 C.2   266  ASP266      0.2266
     91  O         27.1890   33.6040  140.3300 O.2   266  ASP266     -0.2867
     92  CB        25.4840   33.9860  138.4780 C.3   266  ASP266      0.1410
     93  CG        25.0260   34.7660  137.2880 C.2   266  ASP266      0.3668
     94  OD1       25.9070   35.3840  136.6630 O.co2 266  ASP266     -0.2456
     95  OD2       23.7620   34.8000  137.0170 O.co2 266  ASP266     -0.2456
     96  N         32.1380   34.3990  132.0850 N.3   311  ARG311     -0.1245
     97  CA        31.7220   35.6010  131.3610 C.3   311  ARG311      0.1563
     98  C         32.7460   36.7030  131.6360 C.2   311  ARG311      0.2260
     99  O         32.9970   37.0550  132.8240 O.2   311  ARG311     -0.2867
    100  CB        30.3480   36.0600  131.8470 C.3   311  ARG311      0.0307
    101  CG        29.2800   34.9990  131.6420 C.3   311  ARG311      0.0489
    102  CD        28.0590   35.5030  132.3720 C.3   311  ARG311      0.2205
    103  NE        26.9250   34.5610  132.4140 N.pl3 311  ARG311     -0.0865
    104  CZ        26.7210   33.6480  133.3500 C.cat 311  ARG311      0.5346
    105  NH1       27.5910   33.4490  134.3360 N.pl3 311  ARG311      0.1354
    106  NH2       25.5990   32.9150  133.3100 N.pl3 311  ARG311      0.1354
    107  N         25.3740   43.0890  131.1360 N.3   326  ARG326     -0.1245
    108  CA        25.8860   42.2630  130.0590 C.3   326  ARG326      0.1563
    109  C         26.1860   43.1020  128.8230 C.2   326  ARG326      0.2260
    110  O         26.7350   42.5910  127.8470 O.2   326  ARG326     -0.2867
    111  CB        24.8890   41.1550  129.7130 C.3   326  ARG326      0.0307
    112  CG        25.2720   39.7860  130.2500 C.3   326  ARG326      0.0489
    113  CD        24.3630   39.3660  131.3930 C.3   326  ARG326      0.2205
    114  NE        24.9120   39.7370  132.6940 N.pl3 326  ARG326     -0.0865
    115  CZ        25.1080   38.8830  133.6930 C.cat 326  ARG326      0.5346
    116  NH1       24.8000   37.6020  133.5430 N.pl3 326  ARG326      0.1354
    117  NH2       25.6130   39.3090  134.8430 N.pl3 326  ARG326      0.1354
    118  N         27.8590   39.8390  124.5890 N.3   348  LYS348     -0.1245
    119  CA        27.1780   38.5800  124.2950 C.3   348  LYS348      0.1561
    120  C         27.4200   38.1250  122.8520 C.2   348  LYS348      0.2260
    121  O         27.6750   38.9150  121.9670 O.2   348  LYS348     -0.2867
    122  CB        25.6820   38.7020  124.5480 C.3   348  LYS348      0.0271
    123  CG        25.2020   38.9580  126.0020 C.3   348  LYS348      0.0035
    124  CD        23.7200   39.1320  126.0470 C.3   348  LYS348      0.0206
    125  CE        22.9190   37.8170  125.9240 C.3   348  LYS348      0.1093
    126  NZ        22.9030   36.8410  127.1120 N.3   348  LYS348     -0.1314
@<TRIPOS>BOND
     1   121   120    2
     2     7     8    1
     3    10     9    2
     4     8     9    1
     5     8    11    1
     6   120   119    1
     7    11    12    1
     8   119   122    1
     9   119   118    1
    10   122   123    1
    11    13    12   ar
    12    13    15   ar
    13     4     3    2
    14     3     2    1
    15    12    14   ar
    16    15    16   ar
    17   125   124    1
    18   125   126    1
    19   123   124    1
    20    14    16   ar
    21     1     2    1
    22     2     5    1
    23     5     6    1
    24   110   109    2
    25   109   108    1
    26    75    73   ar
    27    75    76   ar
    28    37    35   ar
    29    37    38   ar
    30    73    71   ar
    31    35    33   ar
    32    76    74   ar
    33    71    70    1
    34    71    72   ar
    35    74    72   ar
    36    70    67    1
    37    39    38    1
    38   111   108    1
    39   111   112    1
    40    38    36   ar
    41   108   107    1
    42   112   113    1
    43    33    32    1
    44    33    34   ar
    45    32    29    1
    46    68    67    1
    47    68    69    2
    48    67    66    1
    49    17    18    1
    50    36    34   ar
    51    97    98    1
    52    97   100    1
    53    97    96    1
    54   113   114    1
    55    98    99    2
    56   101   100    1
    57   101   102    1
    58    28    29    1
    59    28    19   am
    60    29    30    1
    61    30    31    2
    62    66    61   am
    63    77    78    1
    64    86    85    1
    65    80    79    2
    66   102   103    1
    67   103   104    2
    68    18    19    1
    69    18    21    1
    70   114   115    2
    71    78    79    1
    72    19    20    2
    73    79    81   am
    74    87    85    1
    75    22    21    1
    76    22    23    1
    77    57    55    1
    78    61    62    2
    79    61    60    1
    80    85    82    1
    81   106   104    1
    82    81    82    1
    83   104   105    1
    84   116   115    1
    85   115   117    1
    86    24    23    1
    87    24    25    2
    88    82    83    1
    89    55    56    1
    90    55    52    1
    91    60    59    1
    92    60    63    1
    93    56    58    1
    94    27    25    1
    95    25    26    1
    96    59    53   am
    97    54    53    2
    98    53    52    1
    99    64    63    1
   100    83    84    2
   101    52    51    1
   102    63    65    1
   103    50    48    1
   104    51    42   am
   105    94    93   ar
   106    95    93   ar
   107    48    49    1
   108    48    47    2
   109    93    92    1
   110    42    43    2
   111    42    41    1
   112    47    46    1
   113    88    89    1
   114    89    92    1
   115    89    90    1
   116    41    44    1
   117    41    40    1
   118    44    45    1
   119    46    45    1
   120    90    91    2
