@<TRIPOS>MOLECULE
tmp/2r4tA00.pdb
 127 120 0 0 0
SMALL
GASTEIGER

@<TRIPOS>ATOM
      1  N          7.0120  -35.7820  -37.8340 N.3    17  GLY17      -0.1210
      2  CA         6.9590  -37.1300  -37.2580 C.3    17  GLY17       0.1956
      3  C          8.3010  -37.5890  -36.7180 C.2    17  GLY17       0.2612
      4  O          9.2060  -36.7730  -36.5200 O.2    17  GLY17      -0.2717
      5  N          8.4350  -38.9000  -36.5010 N.am   18  GLY18      -0.1942
      6  CA         9.6130  -39.4640  -35.8570 C.3    18  GLY18       0.2014
      7  C         10.9100  -39.2390  -36.6130 C.2    18  GLY18       0.2638
      8  O         11.9890  -39.1690  -36.0170 O.2    18  GLY18      -0.2714
      9  N         10.8190  -39.1500  -37.9310 N.am   19  LEU19      -0.1977
     10  CA        12.0000  -38.8970  -38.7510 C.3    19  LEU19       0.1596
     11  C         12.7780  -37.6950  -38.2110 C.2    19  LEU19       0.2287
     12  O         14.0000  -37.7290  -38.1390 O.2    19  LEU19      -0.2864
     13  CB        11.5900  -38.6210  -40.1930 C.3    19  LEU19       0.0297
     14  CG        12.5580  -38.8300  -41.3680 C.3    19  LEU19       0.0022
     15  CD1       12.3820  -37.7110  -42.3790 C.3    19  LEU19       0.0001
     16  CD2       14.0240  -38.9670  -40.9790 C.3    19  LEU19       0.0001
     17  N         14.8640  -38.5560  -35.2210 N.3    22  VAL22      -0.1245
     18  CA        16.0450  -39.3150  -35.6310 C.3    22  VAL22       0.1561
     19  C         17.1630  -38.4000  -36.1540 C.2    22  VAL22       0.2260
     20  O         18.3130  -38.4990  -35.7200 O.2    22  VAL22      -0.2867
     21  CB        15.6970  -40.3700  -36.7070 C.3    22  VAL22       0.0252
     22  CG1       16.9710  -41.0310  -37.2600 C.3    22  VAL22       0.0019
     23  CG2       14.7290  -41.4180  -36.1370 C.3    22  VAL22       0.0019
     24  N         14.1500  -42.1110  -46.4930 N.3   137  ASP137     -0.1239
     25  CA        12.7680  -42.0810  -47.0030 C.3   137  ASP137      0.1674
     26  C         12.6730  -41.5610  -48.4370 C.2   137  ASP137      0.2266
     27  O         13.6720  -41.1200  -49.0100 O.2   137  ASP137     -0.2867
     28  CB        11.8410  -41.2870  -46.0710 C.3   137  ASP137      0.1410
     29  CG        10.9760  -42.1890  -45.2150 C.2   137  ASP137      0.3668
     30  OD1       11.0580  -43.4310  -45.3700 O.co2 137  ASP137     -0.2456
     31  OD2       10.2110  -41.6650  -44.3910 O.co2 137  ASP137     -0.2456
     32  N         12.1480  -45.3480  -43.3780 N.3   161  HIS161     -0.1226
     33  CA        11.4500  -45.0320  -42.1470 C.3   161  HIS161      0.1752
     34  C          9.9820  -45.4120  -42.2670 C.2   161  HIS161      0.2596
     35  O          9.3230  -45.6410  -41.2630 O.2   161  HIS161     -0.2718
     36  CB        11.5880  -43.5460  -41.8320 C.3   161  HIS161      0.0759
     37  CG        12.9950  -43.1390  -41.5310 C.ar  161  HIS161      0.0818
     38  ND1       13.4430  -42.9110  -40.2500 N.ar  161  HIS161     -0.2268
     39  CD2       14.0610  -42.9550  -42.3440 C.ar  161  HIS161      0.1154
     40  CE1       14.7210  -42.5770  -40.2900 C.ar  161  HIS161      0.1986
     41  NE2       15.1220  -42.6080  -41.5470 N.ar  161  HIS161     -0.2212
     42  N          9.4700  -45.4600  -43.4940 N.am  162  ASN162     -0.1974
     43  CA         8.0790  -45.8460  -43.7200 C.3   162  ASN162      0.1688
     44  C          7.8330  -46.1720  -45.1850 C.2   162  ASN162      0.2292
     45  O          7.9130  -45.2970  -46.0540 O.2   162  ASN162     -0.2864
     46  CB         7.1120  -44.7530  -43.2450 C.3   162  ASN162      0.1181
     47  CG         5.6960  -45.2530  -43.1140 C.2   162  ASN162      0.2629
     48  OD1        5.1990  -45.9710  -43.9810 O.2   162  ASN162     -0.2716
     49  ND2        5.0340  -44.8840  -42.0270 N.am  162  ASN162     -0.0877
     50  N         14.3030  -49.3160  -40.0000 N.3   211  VAL211     -0.1245
     51  CA        14.3890  -48.6100  -38.7370 C.3   211  VAL211      0.1561
     52  C         14.0500  -49.4990  -37.5110 C.2   211  VAL211      0.2260
     53  O         14.0450  -49.0420  -36.3730 O.2   211  VAL211     -0.2867
     54  CB        13.5590  -47.2960  -38.9050 C.3   211  VAL211      0.0252
     55  CG1       12.4450  -47.1640  -37.9270 C.3   211  VAL211      0.0019
     56  CG2       14.4780  -46.0680  -39.0320 C.3   211  VAL211      0.0019
     57  N         16.0670  -47.4610  -33.8450 N.3   246  ASN246     -0.1240
     58  CA        16.2400  -46.0680  -33.4250 C.3   246  ASN246      0.1653
     59  C         16.5570  -45.9720  -31.9330 C.2   246  ASN246      0.2266
     60  O         16.2000  -46.8600  -31.1600 O.2   246  ASN246     -0.2867
     61  CB        14.9510  -45.2610  -33.6710 C.3   246  ASN246      0.1155
     62  CG        14.6410  -45.0300  -35.1560 C.2   246  ASN246      0.2627
     63  OD1       13.4690  -44.8070  -35.5230 O.2   246  ASN246     -0.2716
     64  ND2       15.6690  -45.0740  -36.0110 N.am  246  ASN246     -0.0877
     65  N         -0.0760  -39.0420  -35.0450 N.3   300  ARG300     -0.1245
     66  CA        -0.6940  -38.7110  -36.3220 C.3   300  ARG300      0.1563
     67  C         -1.9580  -39.5700  -36.4510 C.2   300  ARG300      0.2260
     68  O         -1.9920  -40.7220  -36.0090 O.2   300  ARG300     -0.2867
     69  CB         0.2590  -38.9780  -37.4950 C.3   300  ARG300      0.0307
     70  CG         1.5040  -38.0940  -37.5090 C.3   300  ARG300      0.0489
     71  CD         2.3950  -38.3320  -38.7400 C.3   300  ARG300      0.2205
     72  NE         2.9180  -39.6970  -38.8140 N.pl3 300  ARG300     -0.0865
     73  CZ         2.5840  -40.5830  -39.7530 C.cat 300  ARG300      0.5346
     74  NH1        1.7240  -40.2470  -40.7070 N.pl3 300  ARG300      0.1354
     75  NH2        3.1070  -41.8090  -39.7450 N.pl3 300  ARG300      0.1354
     76  N         -2.5360  -46.1560  -40.4870 N.3   304  GLN304     -0.1231
     77  CA        -1.3570  -46.8660  -39.9890 C.3   304  GLN304      0.1698
     78  C         -1.4550  -47.1050  -38.4930 C.2   304  GLN304      0.2592
     79  O         -1.0340  -48.1440  -37.9940 O.2   304  GLN304     -0.2718
     80  CB        -0.0720  -46.0770  -40.2810 C.3   304  GLN304      0.0381
     81  CG         1.1450  -46.5540  -39.4750 C.3   304  GLN304      0.0905
     82  CD         2.4150  -45.7380  -39.7440 C.2   304  GLN304      0.2608
     83  OE1        2.4620  -44.9070  -40.6580 O.2   304  GLN304     -0.2717
     84  NE2        3.4500  -45.9800  -38.9470 N.am  304  GLN304     -0.0878
     85  N         -2.0370  -46.1420  -37.7870 N.am  305  LYS305     -0.1980
     86  CA        -1.9460  -46.0930  -36.3420 C.3   305  LYS305      0.1596
     87  C         -3.0540  -46.8440  -35.5990 C.2   305  LYS305      0.2287
     88  O         -3.0160  -46.9360  -34.3750 O.2   305  LYS305     -0.2864
     89  CB        -1.8560  -44.6340  -35.8760 C.3   305  LYS305      0.0298
     90  CG        -0.6760  -43.8610  -36.4860 C.3   305  LYS305      0.0038
     91  CD         0.6840  -44.4090  -36.0010 C.3   305  LYS305      0.0206
     92  CE         1.8400  -43.5410  -36.4830 C.3   305  LYS305      0.1093
     93  NZ         3.1470  -43.9470  -35.8850 N.3   305  LYS305     -0.1314
     94  N          4.2110  -50.4800  -37.9930 N.3   377  GLU377     -0.1231
     95  CA         4.9970  -49.5010  -37.2480 C.3   377  GLU377      0.1684
     96  C          6.4870  -49.7610  -37.4340 C.2   377  GLU377      0.2434
     97  O          7.0810  -50.5840  -36.7260 O.2   377  GLU377     -0.2733
     98  CB         4.6080  -49.5090  -35.7630 C.3   377  GLU377      0.0402
     99  CG         5.0500  -48.2550  -34.9890 C.3   377  GLU377      0.1161
    100  CD         4.4290  -46.9640  -35.5400 C.2   377  GLU377      0.3649
    101  OE1        5.1790  -46.1250  -36.1040 O.co2 377  GLU377     -0.2457
    102  OE2        3.1950  -46.7940  -35.4150 O.co2 377  GLU377     -0.2457
    103  N          7.0930  -49.0650  -38.4060 N.am  378  PRO378     -0.2718
    104  CA         8.5020  -49.2590  -38.7290 C.3   378  PRO378      0.1535
    105  C          9.3570  -49.2480  -37.4710 C.2   378  PRO378      0.2599
    106  O         10.2050  -50.1180  -37.3060 O.2   378  PRO378     -0.2715
    107  CB         8.8140  -48.0760  -39.6600 C.3   378  PRO378      0.0310
    108  CG         7.4850  -47.8440  -40.3610 C.3   378  PRO378      0.0237
    109  CD         6.4640  -48.0450  -39.2680 C.3   378  PRO378      0.0939
    110  N          9.1270  -48.2890  -36.5820 N.am  379  CYS379     -0.1954
    111  CA         9.7870  -48.3230  -35.2830 C.3   379  CYS379      0.1843
    112  C          8.8460  -47.8940  -34.1790 C.2   379  CYS379      0.2626
    113  O          8.5280  -48.6750  -33.2740 O.2   379  CYS379     -0.2714
    114  CB        11.0400  -47.4430  -35.2490 C.3   379  CYS379      0.0997
    115  SG        11.9210  -47.5450  -33.6330 S.3   379  CYS379     -0.0797
    116  N          8.3930  -46.6520  -34.2630 N.am  380  GLY380     -0.1940
    117  CA         7.5460  -46.0960  -33.2380 C.3   380  GLY380      0.2014
    118  C          8.4520  -45.4980  -32.1870 C.2   380  GLY380      0.2638
    119  O          9.3430  -46.1760  -31.6550 O.2   380  GLY380     -0.2714
    120  N          8.2600  -44.2240  -31.8980 N.am  381  LEU381     -0.1977
    121  CA         9.0760  -43.5740  -30.8890 C.3   381  LEU381      0.1596
    122  C          8.2440  -43.2770  -29.6550 C.2   381  LEU381      0.2287
    123  O          8.7590  -43.2900  -28.5380 O.2   381  LEU381     -0.2864
    124  CB         9.7170  -42.3060  -31.4510 C.3   381  LEU381      0.0297
    125  CG        10.7710  -42.5530  -32.5370 C.3   381  LEU381      0.0022
    126  CD1       11.1500  -41.2530  -33.2040 C.3   381  LEU381      0.0001
    127  CD2       12.0230  -43.2640  -31.9920 C.3   381  LEU381      0.0001
@<TRIPOS>BOND
     1    27    26    2
     2    26    25    1
     3    25    24    1
     4    25    28    1
     5    28    29    1
     6    45    44    2
     7    30    29   ar
     8    29    31   ar
     9    44    43    1
    10    48    47    2
    11    43    42    1
    12    43    46    1
    13    42    34   am
    14    32    33    1
    15    46    47    1
    16    47    49   am
    17    15    14    1
    18    39    41   ar
    19    39    37   ar
    20    34    33    1
    21    34    35    2
    22    33    36    1
    23    36    37    1
    24    41    40   ar
    25    37    38   ar
    26    14    16    1
    27    14    13    1
    28    74    73    1
    29    83    82    2
    30    76    77    1
    31   108   107    1
    32   108   109    1
    33    40    38   ar
    34    80    77    1
    35    80    81    1
    36    13    10    1
    37    50    51    1
    38    77    78    1
    39    73    75    1
    40    73    72    2
    41    82    81    1
    42    82    84   am
    43   107   104    1
    44   109   103    1
    45    56    54    1
    46    54    51    1
    47    54    55    1
    48    72    71    1
    49    10    11    1
    50    10     9    1
    51    71    70    1
    52    51    52    1
    53   104   103    1
    54   104   105    1
    55    78    79    2
    56    78    85   am
    57   103    96   am
    58    11    12    2
    59    94    95    1
    60     9     7   am
    61     1     2    1
    62    85    86    1
    63    52    53    2
    64    70    69    1
    65    69    66    1
    66   105   106    2
    67   105   110   am
    68    96    95    1
    69    96    97    2
    70    22    21    1
    71     2     3    1
    72    95    98    1
    73     3     4    2
    74     3     5   am
    75    21    23    1
    76    21    18    1
    77     7     8    2
    78     7     6    1
    79   110   111    1
    80     5     6    1
    81    90    91    1
    82    90    89    1
    83    92    91    1
    84    92    93    1
    85    67    66    1
    86    67    68    2
    87    86    89    1
    88    86    87    1
    89    66    65    1
    90    19    20    2
    91    19    18    1
    92   101   100   ar
    93    64    62   am
    94    98    99    1
    95    18    17    1
    96    87    88    2
    97   100   102   ar
    98   100    99    1
    99    63    62    2
   100   111   114    1
   101   111   112    1
   102   114   115    1
   103    62    61    1
   104   116   112   am
   105   116   117    1
   106   112   113    2
   107    57    58    1
   108    61    58    1
   109    58    59    1
   110   117   118    1
   111   126   125    1
   112   125   127    1
   113   125   124    1
   114   118   120   am
   115   118   119    2
   116    59    60    2
   117   120   121    1
   118   124   121    1
   119   121   122    1
   120   122   123    2
