@<TRIPOS>MOLECULE
tmp/2r4tA01.pdb
 216 208 0 0 0
SMALL
GASTEIGER

@<TRIPOS>ATOM
      1  N          9.5500  -30.5510  -37.9420 N.3    15  LYS15      -0.1231
      2  CA         9.1410  -31.8930  -37.5560 C.3    15  LYS15       0.1693
      3  C          7.6890  -32.1730  -37.9180 C.2    15  LYS15       0.2593
      4  O          6.8100  -31.4000  -37.5680 O.2    15  LYS15      -0.2718
      5  CB         9.3370  -32.0910  -36.0460 C.3    15  LYS15       0.0285
      6  CG         8.7910  -33.4410  -35.5060 C.3    15  LYS15       0.0035
      7  CD         9.0910  -33.6000  -34.0040 C.3    15  LYS15       0.0206
      8  CE         8.4190  -34.8420  -33.4030 C.3    15  LYS15       0.1093
      9  NZ         8.7410  -34.9840  -31.9540 N.3    15  LYS15      -0.1314
     10  N          7.4450  -33.2780  -38.6170 N.am   16  THR16      -0.1939
     11  CA         6.0850  -33.7520  -38.8340 C.3    16  THR16       0.2028
     12  C          5.9090  -35.1590  -38.2490 C.2    16  THR16       0.2643
     13  O          4.7980  -35.6670  -38.1780 O.2    16  THR16      -0.2714
     14  CB         5.6890  -33.7840  -40.3330 C.3    16  THR16       0.1808
     15  OG1        6.4220  -34.8170  -41.0060 O.3    16  THR16      -0.2208
     16  CG2        5.9500  -32.4360  -41.0050 C.3    16  THR16       0.0379
     17  N          7.0120  -35.7820  -37.8340 N.am   17  GLY17      -0.1939
     18  CA         6.9590  -37.1300  -37.2580 C.3    17  GLY17       0.2014
     19  C          8.3010  -37.5890  -36.7180 C.2    17  GLY17       0.2639
     20  O          9.2060  -36.7730  -36.5200 O.2    17  GLY17      -0.2714
     21  N          8.4350  -38.9000  -36.5010 N.am   18  GLY18      -0.1939
     22  CA         9.6130  -39.4640  -35.8570 C.3    18  GLY18       0.2014
     23  C         10.9100  -39.2390  -36.6130 C.2    18  GLY18       0.2638
     24  O         11.9890  -39.1690  -36.0170 O.2    18  GLY18      -0.2714
     25  N         10.8190  -39.1500  -37.9310 N.am   19  LEU19      -0.1977
     26  CA        12.0000  -38.8970  -38.7510 C.3    19  LEU19       0.1596
     27  C         12.7780  -37.6950  -38.2110 C.2    19  LEU19       0.2287
     28  O         14.0000  -37.7290  -38.1390 O.2    19  LEU19      -0.2864
     29  CB        11.5900  -38.6210  -40.1930 C.3    19  LEU19       0.0297
     30  CG        12.5580  -38.8300  -41.3680 C.3    19  LEU19       0.0022
     31  CD1       12.3820  -37.7110  -42.3790 C.3    19  LEU19       0.0001
     32  CD2       14.0240  -38.9670  -40.9790 C.3    19  LEU19       0.0001
     33  N         12.9650  -36.4910  -35.2100 N.3    21  ASP21      -0.1239
     34  CA        13.6290  -36.8770  -33.9660 C.3    21  ASP21       0.1674
     35  C         14.9200  -37.6390  -34.2590 C.2    21  ASP21       0.2266
     36  O         15.9480  -37.3850  -33.6300 O.2    21  ASP21      -0.2867
     37  CB        12.7000  -37.7260  -33.0900 C.3    21  ASP21       0.1410
     38  CG        11.4850  -36.9370  -32.5670 C.2    21  ASP21       0.3668
     39  OD1       11.4610  -35.6890  -32.6710 O.co2  21  ASP21      -0.2456
     40  OD2       10.5510  -37.5800  -32.0320 O.co2  21  ASP21      -0.2456
     41  N          9.4700  -45.4600  -43.4940 N.3   162  ASN162     -0.1240
     42  CA         8.0790  -45.8460  -43.7200 C.3   162  ASN162      0.1653
     43  C          7.8330  -46.1720  -45.1850 C.2   162  ASN162      0.2266
     44  O          7.9130  -45.2970  -46.0540 O.2   162  ASN162     -0.2867
     45  CB         7.1120  -44.7530  -43.2450 C.3   162  ASN162      0.1155
     46  CG         5.6960  -45.2530  -43.1140 C.2   162  ASN162      0.2627
     47  OD1        5.1990  -45.9710  -43.9810 O.2   162  ASN162     -0.2716
     48  ND2        5.0340  -44.8840  -42.0270 N.am  162  ASN162     -0.0877
     49  N         13.7540  -36.2260  -24.1880 N.3   253  TRP253     -0.1241
     50  CA        12.7870  -37.1600  -23.6200 C.3   253  TRP253      0.1605
     51  C         13.3550  -37.9190  -22.4180 C.2   253  TRP253      0.2264
     52  O         13.7300  -39.0920  -22.5400 O.2   253  TRP253     -0.2867
     53  CB        12.2970  -38.1540  -24.6920 C.3   253  TRP253      0.0550
     54  CG        11.5450  -37.4870  -25.8010 C.ar  253  TRP253      0.0003
     55  CD1       12.0480  -37.0710  -27.0100 C.ar  253  TRP253      0.0946
     56  CD2       10.1570  -37.1170  -25.7960 C.ar  253  TRP253      0.0152
     57  NE1       11.0530  -36.4780  -27.7570 N.ar  253  TRP253     -0.2442
     58  CE2        9.8850  -36.4920  -27.0380 C.ar  253  TRP253      0.0810
     59  CE3        9.1200  -37.2570  -24.8670 C.ar  253  TRP253      0.0012
     60  CZ2        8.6120  -36.0150  -27.3770 C.ar  253  TRP253      0.0191
     61  CZ3        7.8460  -36.7740  -25.2070 C.ar  253  TRP253      0.0001
     62  CH2        7.6090  -36.1650  -26.4490 C.ar  253  TRP253      0.0015
     63  N         -0.7530  -39.9560  -28.3580 N.3   298  VAL298     -0.1231
     64  CA        -0.0900  -38.8510  -29.0260 C.3   298  VAL298      0.1692
     65  C          0.3180  -39.3970  -30.3780 C.2   298  VAL298      0.2593
     66  O          1.2410  -40.2140  -30.4700 O.2   298  VAL298     -0.2718
     67  CB         1.1810  -38.3760  -28.2930 C.3   298  VAL298      0.0266
     68  CG1        1.8250  -37.2510  -29.0720 C.3   298  VAL298      0.0020
     69  CG2        0.8600  -37.9300  -26.8690 C.3   298  VAL298      0.0020
     70  N         -0.3630  -38.9640  -31.4320 N.am  299  SER299     -0.1938
     71  CA        -0.2280  -39.6500  -32.7030 C.3   299  SER299      0.2055
     72  C         -0.7410  -38.8730  -33.9040 C.2   299  SER299      0.2642
     73  O         -1.7330  -38.1600  -33.8030 O.2   299  SER299     -0.2714
     74  CB        -0.9910  -40.9750  -32.6340 C.3   299  SER299      0.2130
     75  OG        -0.7620  -41.7400  -33.7950 O.3   299  SER299     -0.2179
     76  N         -0.0760  -39.0420  -35.0450 N.am  300  ARG300     -0.1977
     77  CA        -0.6940  -38.7110  -36.3220 C.3   300  ARG300      0.1597
     78  C         -1.9580  -39.5700  -36.4510 C.2   300  ARG300      0.2287
     79  O         -1.9920  -40.7220  -36.0090 O.2   300  ARG300     -0.2864
     80  CB         0.2590  -38.9780  -37.4950 C.3   300  ARG300      0.0334
     81  CG         1.5040  -38.0940  -37.5090 C.3   300  ARG300      0.0492
     82  CD         2.3950  -38.3320  -38.7400 C.3   300  ARG300      0.2205
     83  NE         2.9180  -39.6970  -38.8140 N.pl3 300  ARG300     -0.0865
     84  CZ         2.5840  -40.5830  -39.7530 C.cat 300  ARG300      0.5346
     85  NH1        1.7240  -40.2470  -40.7070 N.pl3 300  ARG300      0.1354
     86  NH2        3.1070  -41.8090  -39.7450 N.pl3 300  ARG300      0.1354
     87  N         -2.5360  -46.1560  -40.4870 N.3   304  GLN304     -0.1231
     88  CA        -1.3570  -46.8660  -39.9890 C.3   304  GLN304      0.1698
     89  C         -1.4550  -47.1050  -38.4930 C.2   304  GLN304      0.2592
     90  O         -1.0340  -48.1440  -37.9940 O.2   304  GLN304     -0.2718
     91  CB        -0.0720  -46.0770  -40.2810 C.3   304  GLN304      0.0381
     92  CG         1.1450  -46.5540  -39.4750 C.3   304  GLN304      0.0905
     93  CD         2.4150  -45.7380  -39.7440 C.2   304  GLN304      0.2608
     94  OE1        2.4620  -44.9070  -40.6580 O.2   304  GLN304     -0.2717
     95  NE2        3.4500  -45.9800  -38.9470 N.am  304  GLN304     -0.0878
     96  N         -2.0370  -46.1420  -37.7870 N.am  305  LYS305     -0.1980
     97  CA        -1.9460  -46.0930  -36.3420 C.3   305  LYS305      0.1596
     98  C         -3.0540  -46.8440  -35.5990 C.2   305  LYS305      0.2287
     99  O         -3.0160  -46.9360  -34.3750 O.2   305  LYS305     -0.2864
    100  CB        -1.8560  -44.6340  -35.8760 C.3   305  LYS305      0.0298
    101  CG        -0.6760  -43.8610  -36.4860 C.3   305  LYS305      0.0038
    102  CD         0.6840  -44.4090  -36.0010 C.3   305  LYS305      0.0206
    103  CE         1.8400  -43.5410  -36.4830 C.3   305  LYS305      0.1093
    104  NZ         3.1470  -43.9470  -35.8850 N.3   305  LYS305     -0.1314
    105  N         -4.0320  -36.5100  -28.0740 N.3   327  LEU327     -0.1231
    106  CA        -3.4980  -35.4080  -28.8450 C.3   327  LEU327      0.1693
    107  C         -3.1240  -35.9720  -30.2150 C.2   327  LEU327      0.2593
    108  O         -2.3970  -36.9720  -30.3100 O.2   327  LEU327     -0.2718
    109  CB        -2.2780  -34.8070  -28.1380 C.3   327  LEU327      0.0284
    110  CG        -1.3680  -33.8210  -28.8800 C.3   327  LEU327      0.0019
    111  CD1       -2.1230  -32.5500  -29.2810 C.3   327  LEU327      0.0001
    112  CD2       -0.1290  -33.4730  -28.0370 C.3   327  LEU327      0.0001
    113  N         -3.6440  -35.3620  -31.2760 N.am  328  GLY328     -0.1942
    114  CA        -3.3510  -35.8270  -32.6290 C.3   328  GLY328      0.2014
    115  C         -3.9230  -34.9630  -33.7370 C.2   328  GLY328      0.2638
    116  O         -4.7980  -34.1330  -33.5080 O.2   328  GLY328     -0.2714
    117  N         -3.4250  -35.1760  -34.9490 N.am  329  ALA329     -0.1977
    118  CA        -3.8830  -34.4470  -36.1300 C.3   329  ALA329      0.1597
    119  C         -3.8170  -35.3640  -37.3450 C.2   329  ALA329      0.2287
    120  O         -2.8680  -36.1430  -37.4810 O.2   329  ALA329     -0.2864
    121  CB        -3.0110  -33.2210  -36.3670 C.3   329  ALA329      0.0319
    122  N         -4.6450  -31.2460  -33.2240 N.3   354  GLY354     -0.1210
    123  CA        -3.5850  -30.3440  -33.6570 C.3   354  GLY354      0.1956
    124  C         -2.2090  -30.8400  -33.2430 C.2   354  GLY354      0.2612
    125  O         -2.0810  -31.8660  -32.5730 O.2   354  GLY354     -0.2717
    126  N         -1.1770  -30.1100  -33.6490 N.am  355  TYR355     -0.1962
    127  CA         0.1820  -30.4850  -33.3270 C.3   355  TYR355      0.1771
    128  C          0.7200  -29.6280  -32.1940 C.2   355  TYR355      0.2620
    129  O          0.8690  -28.4170  -32.3500 O.2   355  TYR355     -0.2715
    130  CB         1.0910  -30.3470  -34.5480 C.3   355  TYR355      0.0574
    131  CG         2.4100  -31.0240  -34.3110 C.ar  355  TYR355     -0.0198
    132  CD1        2.6230  -32.3360  -34.7290 C.ar  355  TYR355     -0.0009
    133  CD2        3.4310  -30.3690  -33.6250 C.ar  355  TYR355     -0.0009
    134  CE1        3.8270  -32.9730  -34.4890 C.ar  355  TYR355      0.0417
    135  CE2        4.6340  -30.9920  -33.3830 C.ar  355  TYR355      0.0417
    136  CZ         4.8260  -32.2940  -33.8140 C.ar  355  TYR355      0.1957
    137  OH         6.0210  -32.9200  -33.5580 O.3   355  TYR355     -0.2866
    138  N          1.0190  -30.2470  -31.0540 N.am  356  HIS356     -0.1959
    139  CA         1.4850  -29.4850  -29.8980 C.3   356  HIS356      0.1787
    140  C          2.6790  -30.1430  -29.1890 C.2   356  HIS356      0.2620
    141  O          2.5120  -31.0020  -28.3230 O.2   356  HIS356     -0.2715
    142  CB         0.3220  -29.2050  -28.9410 C.3   356  HIS356      0.0785
    143  CG        -0.7970  -28.4300  -29.5700 C.ar  356  HIS356      0.0821
    144  ND1       -0.7230  -27.0720  -29.8050 N.ar  356  HIS356     -0.2267
    145  CD2       -2.0130  -28.8230  -30.0230 C.ar  356  HIS356      0.1154
    146  CE1       -1.8450  -26.6630  -30.3730 C.ar  356  HIS356      0.1986
    147  NE2       -2.6450  -27.7050  -30.5130 N.ar  356  HIS356     -0.2212
    148  N          3.8790  -29.7150  -29.5730 N.am  357  GLU357     -0.1977
    149  CA         5.1190  -30.3230  -29.0990 C.3   357  GLU357      0.1602
    150  C          5.2050  -30.3550  -27.5740 C.2   357  GLU357      0.2287
    151  O          5.4130  -31.4180  -26.9830 O.2   357  GLU357     -0.2864
    152  CB         6.3450  -29.6180  -29.7100 C.3   357  GLU357      0.0415
    153  CG         7.6700  -30.4050  -29.5870 C.3   357  GLU357      0.1163
    154  CD         7.7750  -31.5570  -30.5900 C.2   357  GLU357      0.3649
    155  OE1        8.2050  -32.6770  -30.1970 O.co2 357  GLU357     -0.2457
    156  OE2        7.4220  -31.3310  -31.7730 O.co2 357  GLU357     -0.2457
    157  N          2.6290  -32.6550  -25.7840 N.3   360  SER360     -0.1217
    158  CA         2.9240  -34.0920  -25.8540 C.3   360  SER360      0.1889
    159  C          3.7720  -34.5470  -24.6600 C.2   360  SER360      0.2288
    160  O          3.5900  -35.6580  -24.1520 O.2   360  SER360     -0.2866
    161  CB         3.5890  -34.4720  -27.1800 C.3   360  SER360      0.2089
    162  OG         4.8640  -33.8600  -27.3210 O.3   360  SER360     -0.2183
    163  N          2.7920  -37.3900  -21.9170 N.3   364  MET364     -0.1245
    164  CA         3.7370  -38.4760  -21.6610 C.3   364  MET364      0.1570
    165  C          4.0880  -38.5200  -20.1790 C.2   364  MET364      0.2261
    166  O          4.1600  -39.5890  -19.5880 O.2   364  MET364     -0.2867
    167  CB         5.0120  -38.3090  -22.4980 C.3   364  MET364      0.0387
    168  CG         5.7920  -39.5990  -22.7290 C.3   364  MET364      0.0595
    169  SD         4.8420  -40.8560  -23.6460 S.3   364  MET364     -0.1393
    170  CE         4.7920  -40.1130  -25.2780 C.3   364  MET364      0.0692
    171  N          4.2110  -50.4800  -37.9930 N.3   377  GLU377     -0.1245
    172  CA         4.9970  -49.5010  -37.2480 C.3   377  GLU377      0.1567
    173  C          6.4870  -49.7610  -37.4340 C.2   377  GLU377      0.2260
    174  O          7.0810  -50.5840  -36.7260 O.2   377  GLU377     -0.2867
    175  CB         4.6080  -49.5090  -35.7630 C.3   377  GLU377      0.0388
    176  CG         5.0500  -48.2550  -34.9890 C.3   377  GLU377      0.1160
    177  CD         4.4290  -46.9640  -35.5400 C.2   377  GLU377      0.3649
    178  OE1        5.1790  -46.1250  -36.1040 O.co2 377  GLU377     -0.2457
    179  OE2        3.1950  -46.7940  -35.4150 O.co2 377  GLU377     -0.2457
    180  N          9.1270  -48.2890  -36.5820 N.3   379  CYS379     -0.1221
    181  CA         9.7870  -48.3230  -35.2830 C.3   379  CYS379      0.1808
    182  C          8.8460  -47.8940  -34.1790 C.2   379  CYS379      0.2602
    183  O          8.5280  -48.6750  -33.2740 O.2   379  CYS379     -0.2717
    184  CB        11.0400  -47.4430  -35.2490 C.3   379  CYS379      0.0970
    185  SG        11.9210  -47.5450  -33.6330 S.3   379  CYS379     -0.0800
    186  N          8.3930  -46.6520  -34.2630 N.am  380  GLY380     -0.1942
    187  CA         7.5460  -46.0960  -33.2380 C.3   380  GLY380      0.2014
    188  C          8.4520  -45.4980  -32.1870 C.2   380  GLY380      0.2639
    189  O          9.3430  -46.1760  -31.6550 O.2   380  GLY380     -0.2714
    190  N          8.2600  -44.2240  -31.8980 N.am  381  LEU381     -0.1963
    191  CA         9.0760  -43.5740  -30.8890 C.3   381  LEU381      0.1728
    192  C          8.2440  -43.2770  -29.6550 C.2   381  LEU381      0.2616
    193  O          8.7590  -43.2900  -28.5380 O.2   381  LEU381     -0.2715
    194  CB         9.7170  -42.3060  -31.4510 C.3   381  LEU381      0.0311
    195  CG        10.7710  -42.5530  -32.5370 C.3   381  LEU381      0.0022
    196  CD1       11.1500  -41.2530  -33.2040 C.3   381  LEU381      0.0001
    197  CD2       12.0230  -43.2640  -31.9920 C.3   381  LEU381      0.0001
    198  N          6.9510  -43.0350  -29.8470 N.am  382  THR382     -0.1951
    199  CA         6.0900  -42.7110  -28.7120 C.3   382  THR382      0.1897
    200  C          6.0720  -43.8150  -27.6660 C.2   382  THR382      0.2313
    201  O          5.9720  -43.5300  -26.4640 O.2   382  THR382     -0.2863
    202  CB         4.6380  -42.3890  -29.1380 C.3   382  THR382      0.1794
    203  OG1        4.1210  -43.4920  -29.8900 O.3   382  THR382     -0.2208
    204  CG2        4.6060  -41.1350  -30.0040 C.3   382  THR382      0.0378
    205  N          9.2470  -43.4590  -25.7400 N.3   385  TYR385     -0.1241
    206  CA         9.0670  -42.3610  -24.7870 C.3   385  TYR385      0.1605
    207  C          8.2280  -42.8260  -23.5920 C.2   385  TYR385      0.2264
    208  O          8.5180  -42.4780  -22.4480 O.2   385  TYR385     -0.2867
    209  CB         8.4460  -41.1120  -25.4570 C.3   385  TYR385      0.0534
    210  CG         9.2080  -40.6090  -26.6850 C.ar  385  TYR385     -0.0201
    211  CD1       10.5440  -40.9420  -26.8790 C.ar  385  TYR385     -0.0009
    212  CD2        8.5970  -39.7770  -27.6330 C.ar  385  TYR385     -0.0009
    213  CE1       11.2590  -40.4820  -27.9940 C.ar  385  TYR385      0.0417
    214  CE2        9.3030  -39.3050  -28.7580 C.ar  385  TYR385      0.0417
    215  CZ        10.6330  -39.6680  -28.9310 C.ar  385  TYR385      0.1957
    216  OH        11.3660  -39.2260  -30.0230 O.3   385  TYR385     -0.2866
@<TRIPOS>BOND
     1    44    43    2
     2    43    42    1
     3    47    46    2
     4    42    41    1
     5    42    45    1
     6    45    46    1
     7    46    48   am
     8    31    30    1
     9    30    32    1
    10    30    29    1
    11    15    14    1
    12    16    14    1
    13    85    84    1
    14    94    93    2
    15    87    88    1
    16    14    11    1
    17    91    88    1
    18    91    92    1
    19    29    26    1
    20    88    89    1
    21    84    86    1
    22    84    83    2
    23    93    92    1
    24    93    95   am
    25    11    10    1
    26    11    12    1
    27    83    82    1
    28    26    27    1
    29    26    25    1
    30    82    81    1
    31    10     3   am
    32    89    90    2
    33    89    96   am
    34    12    13    2
    35    12    17   am
    36    27    28    2
    37   171   172    1
    38     1     2    1
    39    25    23   am
    40     3     4    2
    41     3     2    1
    42    17    18    1
    43    96    97    1
    44     2     5    1
    45    81    80    1
    46    80    77    1
    47   120   119    2
    48   173   172    1
    49   173   174    2
    50   119   118    1
    51    18    19    1
    52   172   175    1
    53    19    20    2
    54    19    21   am
    55    23    24    2
    56    23    22    1
    57   180   181    1
    58    21    22    1
    59   101   102    1
    60   101   100    1
    61   103   102    1
    62   103   104    1
    63    78    77    1
    64    78    79    2
    65   121   118    1
    66    97   100    1
    67    97    98    1
    68    77    76    1
    69   118   117    1
    70   178   177   ar
    71     5     6    1
    72   175   176    1
    73    98    99    2
    74   177   179   ar
    75   177   176    1
    76     6     7    1
    77   181   184    1
    78   181   182    1
    79   184   185    1
    80    33    34    1
    81    76    72   am
    82   117   115   am
    83   132   134   ar
    84   132   131   ar
    85   130   131    1
    86   130   127    1
    87   134   136   ar
    88   131   133   ar
    89   186   182   am
    90   186   187    1
    91    35    34    1
    92    35    36    2
    93   182   183    2
    94     7     8    1
    95    34    37    1
    96    72    73    2
    97    72    71    1
    98   136   137    1
    99   136   135   ar
   100    75    74    1
   101   115   116    2
   102   115   114    1
   103   123   124    1
   104   123   122    1
   105   126   127    1
   106   126   124   am
   107   133   135   ar
   108     8     9    1
   109   127   128    1
   110   124   125    2
   111   187   188    1
   112   196   195    1
   113    37    38    1
   114    71    74    1
   115    71    70    1
   116    39    38   ar
   117   114   113    1
   118    38    40   ar
   119   195   197    1
   120   195   194    1
   121   129   128    2
   122   128   138   am
   123   188   190   am
   124   188   189    2
   125   190   191    1
   126   156   154   ar
   127   194   191    1
   128    70    65   am
   129   113   107   am
   130   138   139    1
   131   191   192    1
   132   154   155   ar
   133   154   153    1
   134   147   146   ar
   135   147   145   ar
   136    66    65    2
   137    65    64    1
   138   146   144   ar
   139   108   107    2
   140   107   106    1
   141   216   215    1
   142   145   143   ar
   143   204   202    1
   144   139   140    1
   145   139   142    1
   146   203   202    1
   147   198   192   am
   148   198   199    1
   149   144   143   ar
   150   152   153    1
   151   152   149    1
   152   192   193    2
   153   148   140   am
   154   148   149    1
   155   143   142    1
   156   111   110    1
   157   140   141    2
   158   202   199    1
   159   149   150    1
   160    68    67    1
   161    64    63    1
   162    64    67    1
   163   215   214   ar
   164   215   213   ar
   165   110   109    1
   166   110   112    1
   167   106   109    1
   168   106   105    1
   169   214   212   ar
   170   199   200    1
   171    67    69    1
   172   213   211   ar
   173    57    58   ar
   174    57    55   ar
   175   200   201    2
   176   212   210   ar
   177   150   151    2
   178    60    58   ar
   179    60    62   ar
   180   162   161    1
   181   161   158    1
   182    58    56   ar
   183    55    54   ar
   184   211   210   ar
   185   210   209    1
   186    62    61   ar
   187   158   157    1
   188   158   159    1
   189    54    56   ar
   190    54    53    1
   191    56    59   ar
   192   205   206    1
   193   209   206    1
   194   170   169    1
   195    61    59   ar
   196   206   207    1
   197    53    50    1
   198   159   160    2
   199    49    50    1
   200   169   168    1
   201    50    51    1
   202   207   208    2
   203   168   167    1
   204    52    51    2
   205   167   164    1
   206   163   164    1
   207   164   165    1
   208   165   166    2
