@<TRIPOS>MOLECULE
tmp/2r4tA02.pdb
 134 130 0 0 0
SMALL
GASTEIGER

@<TRIPOS>ATOM
      1  N         13.6180  -33.3500  -42.9390 N.3     9  GLU9       -0.1245
      2  CA        13.3210  -32.6810  -41.6690 C.3     9  GLU9        0.1567
      3  C         14.3230  -32.9330  -40.5640 C.2     9  GLU9        0.2260
      4  O         15.1510  -33.8420  -40.6590 O.2     9  GLU9       -0.2867
      5  CB        11.8830  -32.9540  -41.1760 C.3     9  GLU9        0.0388
      6  CG        11.3600  -34.3570  -41.3280 C.3     9  GLU9        0.1160
      7  CD         9.8830  -34.4580  -40.8980 C.2     9  GLU9        0.3649
      8  OE1        9.6190  -34.6610  -39.6980 O.co2   9  GLU9       -0.2457
      9  OE2        8.9910  -34.3140  -41.7580 O.co2   9  GLU9       -0.2457
     10  N          7.4450  -33.2780  -38.6170 N.3    16  THR16      -0.1203
     11  CA         6.0850  -33.7520  -38.8340 C.3    16  THR16       0.1994
     12  C          5.9090  -35.1590  -38.2490 C.2    16  THR16       0.2618
     13  O          4.7980  -35.6670  -38.1780 O.2    16  THR16      -0.2717
     14  CB         5.6890  -33.7840  -40.3330 C.3    16  THR16       0.1784
     15  OG1        6.4220  -34.8170  -41.0060 O.3    16  THR16      -0.2211
     16  CG2        5.9500  -32.4360  -41.0050 C.3    16  THR16       0.0376
     17  N          7.0120  -35.7820  -37.8340 N.am   17  GLY17      -0.1942
     18  CA         6.9590  -37.1300  -37.2580 C.3    17  GLY17       0.2014
     19  C          8.3010  -37.5890  -36.7180 C.2    17  GLY17       0.2639
     20  O          9.2060  -36.7730  -36.5200 O.2    17  GLY17      -0.2714
     21  N          8.4350  -38.9000  -36.5010 N.am   18  GLY18      -0.1939
     22  CA         9.6130  -39.4640  -35.8570 C.3    18  GLY18       0.2014
     23  C         10.9100  -39.2390  -36.6130 C.2    18  GLY18       0.2638
     24  O         11.9890  -39.1690  -36.0170 O.2    18  GLY18      -0.2714
     25  N         10.8190  -39.1500  -37.9310 N.am   19  LEU19      -0.1977
     26  CA        12.0000  -38.8970  -38.7510 C.3    19  LEU19       0.1596
     27  C         12.7780  -37.6950  -38.2110 C.2    19  LEU19       0.2287
     28  O         14.0000  -37.7290  -38.1390 O.2    19  LEU19      -0.2864
     29  CB        11.5900  -38.6210  -40.1930 C.3    19  LEU19       0.0297
     30  CG        12.5580  -38.8300  -41.3680 C.3    19  LEU19       0.0022
     31  CD1       12.3820  -37.7110  -42.3790 C.3    19  LEU19       0.0001
     32  CD2       14.0240  -38.9670  -40.9790 C.3    19  LEU19       0.0001
     33  N          5.6030  -30.5290  -47.4030 N.3    95  TYR95      -0.1241
     34  CA         5.1310  -31.5140  -48.3720 C.3    95  TYR95       0.1605
     35  C          3.8840  -31.1020  -49.1620 C.2    95  TYR95       0.2264
     36  O          3.6650  -31.5910  -50.2640 O.2    95  TYR95      -0.2867
     37  CB         4.9010  -32.8660  -47.6900 C.3    95  TYR95       0.0534
     38  CG         6.0360  -33.2820  -46.7800 C.ar   95  TYR95      -0.0201
     39  CD1        7.2820  -33.6210  -47.3020 C.ar   95  TYR95      -0.0009
     40  CD2        5.8670  -33.3340  -45.3970 C.ar   95  TYR95      -0.0009
     41  CE1        8.3290  -34.0020  -46.4760 C.ar   95  TYR95       0.0417
     42  CE2        6.9090  -33.7140  -44.5600 C.ar   95  TYR95       0.0417
     43  CZ         8.1400  -34.0450  -45.1080 C.ar   95  TYR95       0.1957
     44  OH         9.1800  -34.4320  -44.2950 O.3    95  TYR95      -0.2866
     45  N         -0.6300  -31.7950  -52.2640 N.3   102  ALA102     -0.1245
     46  CA         0.7880  -31.8460  -52.5780 C.3   102  ALA102      0.1562
     47  C          1.1360  -30.7320  -53.5560 C.2   102  ALA102      0.2260
     48  O          0.3670  -30.4480  -54.4750 O.2   102  ALA102     -0.2867
     49  CB         1.1480  -33.2030  -53.1770 C.3   102  ALA102      0.0290
     50  N          6.4320  -30.8530  -56.5130 N.3   106  ASN106     -0.1240
     51  CA         7.1220  -31.7710  -55.6020 C.3   106  ASN106      0.1653
     52  C          8.1830  -32.6340  -56.2620 C.2   106  ASN106      0.2266
     53  O          9.2040  -32.9330  -55.6390 O.2   106  ASN106     -0.2867
     54  CB         6.1460  -32.6770  -54.8530 C.3   106  ASN106      0.1155
     55  CG         5.8490  -32.1800  -53.4670 C.2   106  ASN106      0.2627
     56  OD1        6.2280  -31.0680  -53.1020 O.2   106  ASN106     -0.2716
     57  ND2        5.1560  -32.9960  -52.6780 N.am  106  ASN106     -0.0877
     58  N         14.1500  -42.1110  -46.4930 N.3   137  ASP137     -0.1225
     59  CA        12.7680  -42.0810  -47.0030 C.3   137  ASP137      0.1805
     60  C         12.6730  -41.5610  -48.4370 C.2   137  ASP137      0.2598
     61  O         13.6720  -41.1200  -49.0100 O.2   137  ASP137     -0.2718
     62  CB        11.8410  -41.2870  -46.0710 C.3   137  ASP137      0.1424
     63  CG        10.9760  -42.1890  -45.2150 C.2   137  ASP137      0.3668
     64  OD1       11.0580  -43.4310  -45.3700 O.co2 137  ASP137     -0.2456
     65  OD2       10.2110  -41.6650  -44.3910 O.co2 137  ASP137     -0.2456
     66  N         11.4760  -41.6170  -49.0170 N.am  138  TRP138     -0.1962
     67  CA        11.3390  -41.3310  -50.4450 C.3   138  TRP138      0.1771
     68  C         11.8710  -39.9610  -50.8350 C.2   138  TRP138      0.2619
     69  O         12.4140  -39.7920  -51.9220 O.2   138  TRP138     -0.2715
     70  CB         9.9030  -41.5370  -50.9500 C.3   138  TRP138      0.0590
     71  CG         8.8930  -40.4560  -50.6350 C.ar  138  TRP138      0.0006
     72  CD1        7.9720  -40.4700  -49.6310 C.ar  138  TRP138      0.0946
     73  CD2        8.6680  -39.2370  -51.3680 C.ar  138  TRP138      0.0152
     74  NE1        7.1980  -39.3300  -49.6740 N.ar  138  TRP138     -0.2442
     75  CE2        7.5990  -38.5620  -50.7390 C.ar  138  TRP138      0.0810
     76  CE3        9.2610  -38.6580  -52.4960 C.ar  138  TRP138      0.0012
     77  CZ2        7.1080  -37.3250  -51.1990 C.ar  138  TRP138      0.0191
     78  CZ3        8.7740  -37.4220  -52.9590 C.ar  138  TRP138      0.0001
     79  CH2        7.7150  -36.7680  -52.3000 C.ar  138  TRP138      0.0015
     80  N         11.7440  -38.9910  -49.9430 N.am  139  HIS139     -0.1973
     81  CA        12.1630  -37.6240  -50.2550 C.3   139  HIS139      0.1656
     82  C         13.5980  -37.5450  -50.7500 C.2   139  HIS139      0.2291
     83  O         13.9220  -36.7000  -51.5920 O.2   139  HIS139     -0.2864
     84  CB        11.9590  -36.7410  -49.0420 C.3   139  HIS139      0.0771
     85  CG        10.5850  -36.8600  -48.4740 C.ar  139  HIS139      0.0820
     86  ND1       10.2910  -37.6700  -47.3940 N.ar  139  HIS139     -0.2267
     87  CD2        9.4080  -36.3300  -48.8830 C.ar  139  HIS139      0.1154
     88  CE1        8.9970  -37.6050  -47.1430 C.ar  139  HIS139      0.1986
     89  NE2        8.4390  -36.8030  -48.0330 N.ar  139  HIS139     -0.2212
     90  N         12.1480  -45.3480  -43.3780 N.3   161  HIS161     -0.1226
     91  CA        11.4500  -45.0320  -42.1470 C.3   161  HIS161      0.1752
     92  C          9.9820  -45.4120  -42.2670 C.2   161  HIS161      0.2596
     93  O          9.3230  -45.6410  -41.2630 O.2   161  HIS161     -0.2718
     94  CB        11.5880  -43.5460  -41.8320 C.3   161  HIS161      0.0759
     95  CG        12.9950  -43.1390  -41.5310 C.ar  161  HIS161      0.0818
     96  ND1       13.4430  -42.9110  -40.2500 N.ar  161  HIS161     -0.2268
     97  CD2       14.0610  -42.9550  -42.3440 C.ar  161  HIS161      0.1154
     98  CE1       14.7210  -42.5770  -40.2900 C.ar  161  HIS161      0.1986
     99  NE2       15.1220  -42.6080  -41.5470 N.ar  161  HIS161     -0.2212
    100  N          9.4700  -45.4600  -43.4940 N.am  162  ASN162     -0.1974
    101  CA         8.0790  -45.8460  -43.7200 C.3   162  ASN162      0.1688
    102  C          7.8330  -46.1720  -45.1850 C.2   162  ASN162      0.2292
    103  O          7.9130  -45.2970  -46.0540 O.2   162  ASN162     -0.2864
    104  CB         7.1120  -44.7530  -43.2450 C.3   162  ASN162      0.1181
    105  CG         5.6960  -45.2530  -43.1140 C.2   162  ASN162      0.2629
    106  OD1        5.1990  -45.9710  -43.9810 O.2   162  ASN162     -0.2716
    107  ND2        5.0340  -44.8840  -42.0270 N.am  162  ASN162     -0.0877
    108  N          4.8990  -44.6850  -48.0130 N.3   165  TYR165     -0.1241
    109  CA         5.0110  -43.4300  -48.7560 C.3   165  TYR165      0.1605
    110  C          6.0110  -43.6130  -49.8790 C.2   165  TYR165      0.2264
    111  O          7.2150  -43.7000  -49.6450 O.2   165  TYR165     -0.2867
    112  CB         5.4160  -42.2900  -47.8230 C.3   165  TYR165      0.0534
    113  CG         4.3710  -42.0490  -46.7580 C.ar  165  TYR165     -0.0201
    114  CD1        3.2770  -41.2150  -47.0070 C.ar  165  TYR165     -0.0009
    115  CD2        4.4480  -42.6820  -45.5200 C.ar  165  TYR165     -0.0009
    116  CE1        2.3010  -40.9940  -46.0340 C.ar  165  TYR165      0.0417
    117  CE2        3.4850  -42.4680  -44.5440 C.ar  165  TYR165      0.0417
    118  CZ         2.4170  -41.6220  -44.8080 C.ar  165  TYR165      0.1957
    119  OH         1.4530  -41.4070  -43.8500 O.3   165  TYR165     -0.2866
    120  N          6.4930  -41.8860  -52.9990 N.3   167  GLY167     -0.1225
    121  CA         7.0000  -40.8280  -53.8910 C.3   167  GLY167      0.1811
    122  C          6.7270  -41.1090  -55.3660 C.2   167  GLY167      0.2280
    123  O          7.6530  -41.2190  -56.1700 O.2   167  GLY167     -0.2866
    124  N         -0.0760  -39.0420  -35.0450 N.3   300  ARG300     -0.1245
    125  CA        -0.6940  -38.7110  -36.3220 C.3   300  ARG300      0.1563
    126  C         -1.9580  -39.5700  -36.4510 C.2   300  ARG300      0.2260
    127  O         -1.9920  -40.7220  -36.0090 O.2   300  ARG300     -0.2867
    128  CB         0.2590  -38.9780  -37.4950 C.3   300  ARG300      0.0307
    129  CG         1.5040  -38.0940  -37.5090 C.3   300  ARG300      0.0489
    130  CD         2.3950  -38.3320  -38.7400 C.3   300  ARG300      0.2205
    131  NE         2.9180  -39.6970  -38.8140 N.pl3 300  ARG300     -0.0865
    132  CZ         2.5840  -40.5830  -39.7530 C.cat 300  ARG300      0.5346
    133  NH1        1.7240  -40.2470  -40.7070 N.pl3 300  ARG300      0.1354
    134  NH2        3.1070  -41.8090  -39.7450 N.pl3 300  ARG300      0.1354
@<TRIPOS>BOND
     1    50    51    1
     2    52    53    2
     3    52    51    1
     4   123   122    2
     5    51    54    1
     6   122   121    1
     7    54    55    1
     8    48    47    2
     9   121   120    1
    10    47    46    1
    11    55    56    2
    12    55    57   am
    13    49    46    1
    14    78    76   ar
    15    78    79   ar
    16    46    45    1
    17    76    73   ar
    18    79    77   ar
    19    69    68    2
    20    83    82    2
    21    73    75   ar
    22    73    71   ar
    23    77    75   ar
    24    70    71    1
    25    70    67    1
    26    68    67    1
    27    68    80   am
    28    82    81    1
    29    75    74   ar
    30    71    72   ar
    31    67    66    1
    32    36    35    2
    33    81    80    1
    34    81    84    1
    35   110   111    2
    36   110   109    1
    37    74    72   ar
    38    35    34    1
    39    84    85    1
    40    66    60   am
    41    61    60    2
    42    87    85   ar
    43    87    89   ar
    44   109   108    1
    45   109   112    1
    46    85    86   ar
    47    60    59    1
    48    34    37    1
    49    34    33    1
    50    89    88   ar
    51   112   113    1
    52    37    38    1
    53    86    88   ar
    54    39    38   ar
    55    39    41   ar
    56   114   113   ar
    57   114   116   ar
    58    59    58    1
    59    59    62    1
    60    38    40   ar
    61   113   115   ar
    62    41    43   ar
    63    62    63    1
    64   103   102    2
    65   116   118   ar
    66   115   117   ar
    67    40    42   ar
    68    64    63   ar
    69    63    65   ar
    70   102   101    1
    71    43    42   ar
    72    43    44    1
    73   118   117   ar
    74   118   119    1
    75   106   105    2
    76   101   100    1
    77   101   104    1
    78   100    92   am
    79    90    91    1
    80   104   105    1
    81   105   107   am
    82     1     2    1
    83    31    30    1
    84    97    99   ar
    85    97    95   ar
    86    92    91    1
    87    92    93    2
    88    91    94    1
    89    94    95    1
    90     9     7   ar
    91     2     5    1
    92     2     3    1
    93    99    98   ar
    94    95    96   ar
    95    30    32    1
    96    30    29    1
    97     6     5    1
    98     6     7    1
    99    15    14    1
   100    16    14    1
   101     7     8   ar
   102   133   132    1
   103     4     3    2
   104    14    11    1
   105    98    96   ar
   106    29    26    1
   107   132   134    1
   108   132   131    2
   109    11    10    1
   110    11    12    1
   111   131   130    1
   112    26    27    1
   113    26    25    1
   114   130   129    1
   115    12    13    2
   116    12    17   am
   117    27    28    2
   118    25    23   am
   119    17    18    1
   120   129   128    1
   121   128   125    1
   122    18    19    1
   123    19    20    2
   124    19    21   am
   125    23    24    2
   126    23    22    1
   127    21    22    1
   128   126   125    1
   129   126   127    2
   130   125   124    1
