@<TRIPOS>MOLECULE
tmp/2r4vA00.pdb
 90 89 0 0 0
SMALL
GASTEIGER

@<TRIPOS>ATOM
      1  N         -4.4520   17.7380   10.5700 N.3    16  GLU16      -0.1231
      2  CA        -4.7730   16.4510   11.1770 C.3    16  GLU16       0.1699
      3  C         -3.5610   15.5320   11.3110 C.2    16  GLU16       0.2593
      4  O         -3.3950   14.8550   12.3250 O.2    16  GLU16      -0.2718
      5  CB        -5.8810   15.7490   10.3890 C.3    16  GLU16       0.0402
      6  CG        -6.3190   14.4200   10.9840 C.3    16  GLU16       0.1161
      7  CD        -6.4480   14.4720   12.4930 C.2    16  GLU16       0.3649
      8  OE1       -7.1200   15.3940   13.0030 O.co2  16  GLU16      -0.2457
      9  OE2       -5.8780   13.5910   13.1700 O.co2  16  GLU16      -0.2457
     10  N         -2.7200   15.5090   10.2820 N.am   17  SER17      -0.1938
     11  CA        -1.5650   14.6310   10.2590 C.3    17  SER17       0.2055
     12  C         -0.5730   14.9560   11.3670 C.2    17  SER17       0.2642
     13  O         -0.6350   15.9890   11.9330 O.2    17  SER17      -0.2714
     14  CB        -0.8270   14.7710    8.9390 C.3    17  SER17       0.2130
     15  OG        -0.2010   16.0140    8.8900 O.3    17  SER17      -0.2179
     16  N          0.3570   14.0390   11.6150 N.am   18  ILE18      -0.1977
     17  CA         1.4800   14.2740   12.5310 C.3    18  ILE18       0.1596
     18  C          2.4010   15.3810   11.9760 C.2    18  ILE18       0.2287
     19  O          2.8740   15.2800   10.8650 O.2    18  ILE18      -0.2864
     20  CB         2.2790   12.9570   12.7880 C.3    18  ILE18       0.0276
     21  CG1        1.3830   11.9580   13.5390 C.3    18  ILE18       0.0022
     22  CG2        3.5310   13.2400   13.5810 C.3    18  ILE18       0.0022
     23  CD1        1.9430   10.5650   13.6040 C.3    18  ILE18       0.0001
     24  N          5.7270   10.4430   22.1460 N.3    28  PHE28      -0.1241
     25  CA         4.9950    9.3970   21.4210 C.3    28  PHE28       0.1605
     26  C          5.7950    8.0690   21.4670 C.2    28  PHE28       0.2264
     27  O          5.2570    6.9810   21.7690 O.2    28  PHE28      -0.2867
     28  CB         4.8090    9.8990   19.9670 C.3    28  PHE28       0.0534
     29  CG         3.7710    9.1610   19.1570 C.ar   28  PHE28      -0.0203
     30  CD1        3.3290    9.7250   17.9860 C.ar   28  PHE28      -0.0042
     31  CD2        3.2760    7.9170   19.5240 C.ar   28  PHE28      -0.0042
     32  CE1        2.3880    9.0830   17.2030 C.ar   28  PHE28      -0.0003
     33  CE2        2.3100    7.2650   18.7430 C.ar   28  PHE28      -0.0003
     34  CZ         1.8870    7.8310   17.5820 C.ar   28  PHE28      -0.0000
     35  N          4.7730    4.4940   23.4270 N.3    32  TRP32      -0.1241
     36  CA         4.7690    3.2690   22.6390 C.3    32  TRP32       0.1605
     37  C          5.7000    2.2080   23.2650 C.2    32  TRP32       0.2264
     38  O          5.2800    1.0670   23.4770 O.2    32  TRP32      -0.2867
     39  CB         5.1770    3.6090   21.2050 C.3    32  TRP32       0.0550
     40  CG         4.8440    2.5890   20.1960 C.ar   32  TRP32       0.0003
     41  CD1        4.7890    1.2350   20.3710 C.ar   32  TRP32       0.0946
     42  CD2        4.5490    2.8260   18.8240 C.ar   32  TRP32       0.0152
     43  NE1        4.4550    0.6240   19.1890 N.ar   32  TRP32      -0.2442
     44  CE2        4.3190    1.5790   18.2230 C.ar   32  TRP32       0.0810
     45  CE3        4.4500    3.9790   18.0450 C.ar   32  TRP32       0.0012
     46  CZ2        3.9860    1.4490   16.8930 C.ar   32  TRP32       0.0191
     47  CZ3        4.1570    3.8530   16.7250 C.ar   32  TRP32       0.0001
     48  CH2        3.9180    2.5960   16.1520 C.ar   32  TRP32       0.0015
     49  N         -2.6970    4.2080   25.1010 N.3    38  PHE38      -0.1241
     50  CA        -2.7840    5.6620   25.0130 C.3    38  PHE38       0.1605
     51  C         -3.3570    6.0870   23.6760 C.2    38  PHE38       0.2264
     52  O         -3.2620    5.3730   22.6860 O.2    38  PHE38      -0.2867
     53  CB        -1.4060    6.3500   25.2480 C.3    38  PHE38       0.0534
     54  CG        -0.3740    6.0970   24.1690 C.ar   38  PHE38      -0.0203
     55  CD1       -0.0480    7.0900   23.2550 C.ar   38  PHE38      -0.0042
     56  CD2        0.2770    4.8720   24.0820 C.ar   38  PHE38      -0.0042
     57  CE1        0.9330    6.8610   22.2820 C.ar   38  PHE38      -0.0003
     58  CE2        1.2230    4.6190   23.1260 C.ar   38  PHE38      -0.0003
     59  CZ         1.5600    5.6050   22.2100 C.ar   38  PHE38      -0.0000
     60  N         -3.4940    9.3980   20.8270 N.3    40  VAL40      -0.1231
     61  CA        -2.7690   10.5660   20.3630 C.3    40  VAL40       0.1692
     62  C         -3.7520   11.4420   19.6020 C.2    40  VAL40       0.2593
     63  O         -4.4870   10.9370   18.7450 O.2    40  VAL40      -0.2718
     64  CB        -1.5690   10.1820   19.4390 C.3    40  VAL40       0.0266
     65  CG1       -0.9490   11.4190   18.8410 C.3    40  VAL40       0.0020
     66  CG2       -0.5480    9.3820   20.1870 C.3    40  VAL40       0.0020
     67  N         -3.8200   12.7240   19.9690 N.am   41  THR41      -0.1939
     68  CA        -4.6820   13.7270   19.2990 C.3    41  THR41       0.2028
     69  C         -3.7500   14.7880   18.7330 C.2    41  THR41       0.2642
     70  O         -2.8400   15.2330   19.4290 O.2    41  THR41      -0.2714
     71  CB        -5.6850   14.4180   20.2580 C.3    41  THR41       0.1808
     72  OG1       -6.7000   13.4900   20.6810 O.3    41  THR41      -0.2208
     73  CG2       -6.3910   15.6010   19.5980 C.3    41  THR41       0.0379
     74  N         -3.9530   15.1610   17.4780 N.am   42  THR42      -0.1950
     75  CA        -3.1680   16.2210   16.8800 C.3    42  THR42       0.1897
     76  C         -3.8840   17.5510   17.0740 C.2    42  THR42       0.2313
     77  O         -5.1340   17.6150   17.0780 O.2    42  THR42      -0.2863
     78  CB        -2.8490   15.9720   15.4000 C.3    42  THR42       0.1794
     79  OG1       -4.0480   16.0470   14.6150 O.3    42  THR42      -0.2208
     80  CG2       -2.1540   14.6110   15.2200 C.3    42  THR42       0.0378
     81  N          7.0520    5.1330   12.4090 N.3   208  HIS208     -0.1241
     82  CA         5.6220    5.4180   12.3830 C.3   208  HIS208      0.1621
     83  C          5.2450    6.6080   13.2570 C.2   208  HIS208      0.2264
     84  O          4.1020    7.0660   13.2350 O.2   208  HIS208     -0.2867
     85  CB         4.8460    4.1810   12.7990 C.3   208  HIS208      0.0745
     86  CG         4.8770    3.0920   11.7680 C.ar  208  HIS208      0.0817
     87  ND1        3.7550    2.3930   11.3940 N.ar  208  HIS208     -0.2268
     88  CD2        5.8920    2.6020   11.0210 C.ar  208  HIS208      0.1154
     89  CE1        4.0770    1.5140   10.4620 C.ar  208  HIS208      0.1986
     90  NE2        5.3680    1.6250   10.2140 N.ar  208  HIS208     -0.2212
@<TRIPOS>BOND
     1    15    14    1
     2    14    11    1
     3    90    89   ar
     4    90    88   ar
     5    11    10    1
     6    11    12    1
     7    10     3   am
     8     5     6    1
     9     5     2    1
    10    89    87   ar
    11     1     2    1
    12    19    18    2
    13     6     7    1
    14    88    86   ar
    15     2     3    1
    16     3     4    2
    17    12    16   am
    18    12    13    2
    19    87    86   ar
    20    16    17    1
    21    86    85    1
    22    18    17    1
    23    82    81    1
    24    82    85    1
    25    82    83    1
    26     7     8   ar
    27     7     9   ar
    28    17    20    1
    29    20    21    1
    30    20    22    1
    31    84    83    2
    32    21    23    1
    33    79    78    1
    34    80    78    1
    35    78    75    1
    36    48    47   ar
    37    48    46   ar
    38    47    45   ar
    39    75    76    1
    40    75    74    1
    41    46    44   ar
    42    76    77    2
    43    32    34   ar
    44    32    30   ar
    45    74    69   am
    46    34    33   ar
    47    30    29   ar
    48    45    42   ar
    49    44    42   ar
    50    44    43   ar
    51    69    68    1
    52    69    70    2
    53    33    31   ar
    54    63    62    2
    55    42    40   ar
    56    65    64    1
    57    29    31   ar
    58    29    28    1
    59    43    41   ar
    60    68    67    1
    61    68    71    1
    62    64    66    1
    63    64    61    1
    64    73    71    1
    65    62    67   am
    66    62    61    1
    67    28    25    1
    68    40    41   ar
    69    40    39    1
    70    71    72    1
    71    61    60    1
    72    39    36    1
    73    25    26    1
    74    25    24    1
    75    26    27    2
    76    59    57   ar
    77    59    58   ar
    78    57    55   ar
    79    36    37    1
    80    36    35    1
    81    52    51    2
    82    58    56   ar
    83    55    54   ar
    84    37    38    2
    85    51    50    1
    86    56    54   ar
    87    54    53    1
    88    50    49    1
    89    50    53    1
