@<TRIPOS>MOLECULE
tmp/2r4zB00.pdb
 222 212 0 0 0
SMALL
GASTEIGER

@<TRIPOS>ATOM
      1  N         17.5010   -3.3790   12.3190 N.3    36  LEU36      -0.1231
      2  CA        17.9590   -2.2850   11.4740 C.3    36  LEU36       0.1693
      3  C         18.6810   -2.8260   10.2460 C.2    36  LEU36       0.2591
      4  O         18.3820   -2.4360    9.1180 O.2    36  LEU36      -0.2718
      5  CB        18.8900   -1.3610   12.2680 C.3    36  LEU36       0.0284
      6  CG        19.4290   -0.1040   11.5750 C.3    36  LEU36       0.0019
      7  CD1       20.4320   -0.4860   10.5020 C.3    36  LEU36       0.0001
      8  CD2       18.2690    0.7010   10.9980 C.3    36  LEU36       0.0001
      9  N         19.6360   -3.7250   10.4670 N.am   37  MET37      -0.1979
     10  CA        20.3850   -4.3100    9.3630 C.3    37  MET37       0.1605
     11  C         19.4830   -5.1150    8.4360 C.2    37  MET37       0.2287
     12  O         19.6090   -5.0230    7.2150 O.2    37  MET37      -0.2864
     13  CB        21.5070   -5.2120    9.8900 C.3    37  MET37       0.0413
     14  CG        22.5920   -4.4900   10.6650 C.3    37  MET37       0.0598
     15  SD        23.3710   -3.1290    9.7580 S.3    37  MET37      -0.1393
     16  CE        23.9720   -3.9630    8.3140 C.3    37  MET37       0.0692
     17  N         17.6800   -2.8030    6.2160 N.3    40  LEU40      -0.1245
     18  CA        18.5410   -2.2260    5.1900 C.3    40  LEU40       0.1561
     19  C         18.6430   -3.2200    4.0330 C.2    40  LEU40       0.2260
     20  O         18.4900   -2.8610    2.8650 O.2    40  LEU40      -0.2867
     21  CB        19.9450   -1.9540    5.7530 C.3    40  LEU40       0.0270
     22  CG        21.0240   -1.5210    4.7560 C.3    40  LEU40       0.0019
     23  CD1       20.7090   -0.1270    4.2240 C.3    40  LEU40       0.0001
     24  CD2       22.3840   -1.5440    5.4340 C.3    40  LEU40       0.0001
     25  N         23.1850   -3.4380   -1.3580 N.3    47  THR47      -0.1218
     26  CA        24.2600   -3.2500   -0.3900 C.3    47  THR47       0.1862
     27  C         24.6980   -4.5590    0.2480 C.2    47  THR47       0.2287
     28  O         25.6950   -4.5960    0.9600 O.2    47  THR47      -0.2866
     29  CB        23.8490   -2.2920    0.7550 C.3    47  THR47       0.1770
     30  OG1       22.7770   -2.8730    1.5040 O.3    47  THR47      -0.2211
     31  CG2       23.4050   -0.9520    0.2030 C.3    47  THR47       0.0375
     32  N         28.5150   -5.8170    0.0870 N.3    50  TYR50      -0.1227
     33  CA        29.5020   -5.1890    0.9640 C.3    50  TYR50       0.1736
     34  C         29.7120   -5.9190    2.2880 C.2    50  TYR50       0.2595
     35  O         30.7750   -5.8200    2.8930 O.2    50  TYR50      -0.2718
     36  CB        29.0840   -3.7610    1.3100 C.3    50  TYR50       0.0548
     37  CG        29.0960   -2.7770    0.1680 C.ar   50  TYR50      -0.0200
     38  CD1       30.2150   -2.6410   -0.6490 C.ar   50  TYR50      -0.0009
     39  CD2       28.0050   -1.9340   -0.0540 C.ar   50  TYR50      -0.0009
     40  CE1       30.2510   -1.6870   -1.6580 C.ar   50  TYR50       0.0417
     41  CE2       28.0310   -0.9800   -1.0610 C.ar   50  TYR50       0.0417
     42  CZ        29.1560   -0.8610   -1.8580 C.ar   50  TYR50       0.1957
     43  OH        29.1790    0.0770   -2.8650 O.3    50  TYR50      -0.2866
     44  N         28.6940   -6.6450    2.7300 N.am   51  PHE51      -0.1976
     45  CA        28.7420   -7.3320    4.0170 C.3    51  PHE51       0.1639
     46  C         29.0890   -8.8140    3.9810 C.2    51  PHE51       0.2290
     47  O         28.7700   -9.5440    4.9200 O.2    51  PHE51      -0.2864
     48  CB        27.3980   -7.1380    4.7180 C.3    51  PHE51       0.0560
     49  CG        27.0920   -5.7000    5.0520 C.ar   51  PHE51      -0.0200
     50  CD1       27.4530   -5.1710    6.2850 C.ar   51  PHE51      -0.0042
     51  CD2       26.4590   -4.8740    4.1280 C.ar   51  PHE51      -0.0042
     52  CE1       27.1840   -3.8410    6.5980 C.ar   51  PHE51      -0.0003
     53  CE2       26.1850   -3.5390    4.4290 C.ar   51  PHE51      -0.0003
     54  CZ        26.5470   -3.0220    5.6670 C.ar   51  PHE51      -0.0000
     55  N         31.5890  -10.4480    4.7250 N.3    53  ARG53      -0.1231
     56  CA        32.3230  -10.9960    5.8650 C.3    53  ARG53       0.1694
     57  C         31.3820  -11.5960    6.9030 C.2    53  ARG53       0.2591
     58  O         31.7340  -12.5550    7.5990 O.2    53  ARG53      -0.2718
     59  CB        33.1620   -9.9140    6.5490 C.3    53  ARG53       0.0321
     60  CG        34.0200  -10.4560    7.6890 C.3    53  ARG53       0.0489
     61  CD        34.6620   -9.3390    8.5000 C.3    53  ARG53       0.2205
     62  NE        33.7480   -8.7390    9.4690 N.pl3  53  ARG53      -0.0865
     63  CZ        33.3270   -9.3350   10.5840 C.cat  53  ARG53       0.5346
     64  NH1       33.7330  -10.5650   10.8850 N.pl3  53  ARG53       0.1354
     65  NH2       32.5020   -8.6940   11.4060 N.pl3  53  ARG53       0.1354
     66  N         30.1850  -11.0300    7.0070 N.am   54  LEU54      -0.1980
     67  CA        29.2120  -11.4870    7.9910 C.3    54  LEU54       0.1596
     68  C         28.5140  -12.7780    7.6120 C.2    54  LEU54       0.2287
     69  O         27.7730  -13.3380    8.4180 O.2    54  LEU54      -0.2864
     70  CB        28.1600  -10.4040    8.2360 C.3    54  LEU54       0.0297
     71  CG        28.6850   -8.9820    8.4660 C.3    54  LEU54       0.0022
     72  CD1       27.5140   -8.0310    8.6830 C.3    54  LEU54       0.0001
     73  CD2       29.6270   -8.9680    9.6570 C.3    54  LEU54       0.0001
     74  N         28.1090   -7.7160   14.6680 N.3    69  HIS69      -0.1241
     75  CA        28.1990   -6.4750   13.9030 C.3    69  HIS69       0.1621
     76  C         27.1050   -5.4880   14.3170 C.2    69  HIS69       0.2264
     77  O         27.3710   -4.3110   14.5760 O.2    69  HIS69      -0.2867
     78  CB        28.0440   -6.7720   12.4070 C.3    69  HIS69       0.0745
     79  CG        27.7520   -5.5580   11.5830 C.ar   69  HIS69       0.0817
     80  ND1       28.7490   -4.7070   11.1780 N.ar   69  HIS69      -0.2268
     81  CD2       26.5520   -5.0640   11.1880 C.ar   69  HIS69       0.1154
     82  CE1       28.1410   -3.7150   10.5590 C.ar   69  HIS69       0.1986
     83  NE2       26.8090   -3.8860   10.5400 N.ar   69  HIS69      -0.2212
     84  N         27.4590   -3.9530   17.8600 N.3    72  THR72      -0.1203
     85  CA        28.5310   -2.9680   17.8470 C.3    72  THR72       0.1994
     86  C         28.1210   -1.6860   17.1130 C.2    72  THR72       0.2617
     87  O         28.5250   -0.5930   17.5020 O.2    72  THR72      -0.2717
     88  CB        29.7960   -3.5690   17.2230 C.3    72  THR72       0.1784
     89  OG1       30.1760   -4.7300   17.9800 O.3    72  THR72      -0.2211
     90  CG2       30.9330   -2.5600   17.2400 C.3    72  THR72       0.0376
     91  N         27.3200   -1.8190   16.0620 N.am   73  LEU73      -0.1979
     92  CA        26.8560   -0.6400   15.3310 C.3    73  LEU73       0.1596
     93  C         26.0020    0.2090   16.2750 C.2    73  LEU73       0.2287
     94  O         26.0800    1.4450   16.2670 O.2    73  LEU73      -0.2864
     95  CB        26.0400   -1.0600   14.0950 C.3    73  LEU73       0.0297
     96  CG        25.4010    0.0460   13.2430 C.3    73  LEU73       0.0022
     97  CD1       25.2700   -0.4190   11.8040 C.3    73  LEU73       0.0001
     98  CD2       24.0470    0.4070   13.8120 C.3    73  LEU73       0.0001
     99  N         27.9630    2.3250   18.3670 N.3    76  ALA76      -0.1231
    100  CA        28.5330    3.4490   17.6400 C.3    76  ALA76       0.1694
    101  C         27.5200    4.5820   17.7780 C.2    76  ALA76       0.2591
    102  O         27.8860    5.7380   17.9880 O.2    76  ALA76      -0.2718
    103  CB        28.7280    3.0880   16.1750 C.3    76  ALA76       0.0304
    104  N         26.2370    4.2380   17.6620 N.am   77  LEU77      -0.1980
    105  CA        25.1740    5.2270   17.8070 C.3    77  LEU77       0.1596
    106  C         25.1100    5.6930   19.2580 C.2    77  LEU77       0.2287
    107  O         24.8410    6.8610   19.5250 O.2    77  LEU77      -0.2864
    108  CB        23.8240    4.6440   17.3780 C.3    77  LEU77       0.0297
    109  CG        23.7430    4.2800   15.8920 C.3    77  LEU77       0.0022
    110  CD1       22.3140    3.8920   15.5200 C.3    77  LEU77       0.0001
    111  CD2       24.1870    5.4740   15.0660 C.3    77  LEU77       0.0001
    112  N         27.7450    8.2210   19.6650 N.3    80  PHE80      -0.1241
    113  CA        27.2700    9.4800   19.0900 C.3    80  PHE80       0.1605
    114  C         26.3350   10.2310   20.0330 C.2    80  PHE80       0.2264
    115  O         26.5090   11.4270   20.2720 O.2    80  PHE80      -0.2867
    116  CB        26.5080    9.2420   17.7810 C.3    80  PHE80       0.0534
    117  CG        27.3600    8.7630   16.6320 C.ar   80  PHE80      -0.0203
    118  CD1       28.7450    8.9110   16.6360 C.ar   80  PHE80      -0.0042
    119  CD2       26.7530    8.2050   15.5130 C.ar   80  PHE80      -0.0042
    120  CE1       29.5050    8.5100   15.5400 C.ar   80  PHE80      -0.0003
    121  CE2       27.4970    7.8030   14.4140 C.ar   80  PHE80      -0.0003
    122  CZ        28.8790    7.9560   14.4240 C.ar   80  PHE80      -0.0000
    123  N         34.5900    6.5690   12.8050 N.3    97  PHE97      -0.1241
    124  CA        33.6820    5.6670   12.1060 C.3    97  PHE97       0.1605
    125  C         33.6160    5.9730   10.6120 C.2    97  PHE97       0.2264
    126  O         33.3460    5.0810    9.8070 O.2    97  PHE97      -0.2867
    127  CB        32.2860    5.7170   12.7370 C.3    97  PHE97       0.0534
    128  CG        32.2230    5.0710   14.0960 C.ar   97  PHE97      -0.0203
    129  CD1       32.5070    3.7130   14.2460 C.ar   97  PHE97      -0.0042
    130  CD2       31.9150    5.8210   15.2280 C.ar   97  PHE97      -0.0042
    131  CE1       32.4850    3.1100   15.5120 C.ar   97  PHE97      -0.0003
    132  CE2       31.8920    5.2320   16.4860 C.ar   97  PHE97      -0.0003
    133  CZ        32.1780    3.8730   16.6290 C.ar   97  PHE97      -0.0000
    134  N         36.1370    3.9590    8.9240 N.3   100  ASN100     -0.1225
    135  CA        35.7060    2.5580    8.8430 C.3   100  ASN100      0.1785
    136  C         34.9410    2.3230    7.5470 C.2   100  ASN100      0.2597
    137  O         34.9950    1.2370    6.9720 O.2   100  ASN100     -0.2718
    138  CB        34.7760    2.2000   10.0080 C.3   100  ASN100      0.1169
    139  CG        35.5070    1.9710   11.3200 C.2   100  ASN100      0.2627
    140  OD1       34.9710    2.2750   12.3870 O.2   100  ASN100     -0.2716
    141  ND2       36.7140    1.4100   11.2550 N.am  100  ASN100     -0.0877
    142  N         34.2230    3.3440    7.0900 N.am  101  HIS101     -0.1975
    143  CA        33.4320    3.2120    5.8720 C.3   101  HIS101      0.1656
    144  C         34.1380    3.7040    4.6150 C.2   101  HIS101      0.2291
    145  O         33.8730    3.2110    3.5180 O.2   101  HIS101     -0.2864
    146  CB        32.0850    3.9190    6.0600 C.3   101  HIS101      0.0771
    147  CG        31.2490    3.3170    7.1440 C.ar  101  HIS101      0.0820
    148  ND1       31.4460    3.5410    8.4890 N.ar  101  HIS101     -0.2267
    149  CD2       30.2580    2.3940    7.0710 C.ar  101  HIS101      0.1154
    150  CE1       30.5980    2.7560    9.1670 C.ar  101  HIS101      0.1986
    151  NE2       29.8520    2.0370    8.3510 N.ar  101  HIS101     -0.2212
    152  N         36.0400    1.1050    2.9480 N.3   104  ARG104     -0.1245
    153  CA        35.2150    0.0980    2.2880 C.3   104  ARG104      0.1563
    154  C         34.4930    0.7090    1.0950 C.2   104  ARG104      0.2260
    155  O         33.5420    0.1310    0.5640 O.2   104  ARG104     -0.2867
    156  CB        34.1890   -0.5040    3.2450 C.3   104  ARG104      0.0307
    157  CG        34.6710   -1.7440    3.9750 C.3   104  ARG104      0.0489
    158  CD        35.1050   -1.4060    5.3700 C.3   104  ARG104      0.2205
    159  NE        35.3410   -2.5970    6.1790 N.pl3 104  ARG104     -0.0865
    160  CZ        35.4250   -2.5730    7.5020 C.cat 104  ARG104      0.5346
    161  NH1       35.2890   -1.4230    8.1470 N.pl3 104  ARG104      0.1354
    162  NH2       35.6410   -3.6900    8.1810 N.pl3 104  ARG104      0.1354
    163  N         32.4970    3.2860    0.8890 N.3   106  ILE106     -0.1245
    164  CA        31.1060    3.6430    1.1440 C.3   106  ILE106      0.1561
    165  C         30.9960    5.1680    1.0890 C.2   106  ILE106      0.2260
    166  O         31.5300    5.8750    1.9480 O.2   106  ILE106     -0.2867
    167  CB        30.6350    3.1610    2.5370 C.3   106  ILE106      0.0252
    168  CG1       30.8820    1.6540    2.6950 C.3   106  ILE106      0.0019
    169  CG2       29.1540    3.5000    2.7300 C.3   106  ILE106      0.0019
    170  CD1       30.0820    0.7670    1.7610 C.3   106  ILE106      0.0001
    171  N         25.6980    6.5660   -0.1120 N.3   110  GLU110     -0.1231
    172  CA        25.4340    5.1900    0.2910 C.3   110  GLU110      0.1699
    173  C         25.1960    5.1140    1.7910 C.2   110  GLU110      0.2592
    174  O         24.2860    4.4270    2.2410 O.2   110  GLU110     -0.2718
    175  CB        26.5950    4.2750   -0.1140 C.3   110  GLU110      0.0402
    176  CG        26.8420    4.2490   -1.6200 C.3   110  GLU110      0.1161
    177  CD        27.9690    3.3210   -2.0340 C.2   110  GLU110      0.3649
    178  OE1       27.6780    2.1540   -2.3770 O.co2 110  GLU110     -0.2457
    179  OE2       29.1450    3.7600   -2.0200 O.co2 110  GLU110     -0.2457
    180  N         26.0080    5.8270    2.5700 N.am  111  PHE111     -0.1976
    181  CA        25.8330    5.8180    4.0210 C.3   111  PHE111      0.1639
    182  C         24.4440    6.3530    4.3690 C.2   111  PHE111      0.2290
    183  O         23.7890    5.8620    5.2870 O.2   111  PHE111     -0.2864
    184  CB        26.9130    6.6730    4.6850 C.3   111  PHE111      0.0560
    185  CG        26.9920    6.5060    6.1810 C.ar  111  PHE111     -0.0200
    186  CD1       26.2520    7.3230    7.0330 C.ar  111  PHE111     -0.0042
    187  CD2       27.8210    5.5330    6.7360 C.ar  111  PHE111     -0.0042
    188  CE1       26.3400    7.1750    8.4180 C.ar  111  PHE111     -0.0003
    189  CE2       27.9150    5.3780    8.1140 C.ar  111  PHE111     -0.0003
    190  CZ        27.1750    6.1990    8.9550 C.ar  111  PHE111     -0.0000
    191  N         21.8060    5.8450    2.9670 N.3   113  LYS113     -0.1231
    192  CA        20.7670    4.8590    2.6900 C.3   113  LYS113      0.1693
    193  C         20.2190    4.3010    3.9990 C.2   113  LYS113      0.2591
    194  O         19.1500    3.6940    4.0280 O.2   113  LYS113     -0.2718
    195  CB        21.3280    3.7020    1.8550 C.3   113  LYS113      0.0285
    196  CG        21.6660    4.0640    0.4130 C.3   113  LYS113      0.0035
    197  CD        22.2190    2.8520   -0.3210 C.3   113  LYS113      0.0206
    198  CE        22.4580    3.1630   -1.7880 C.3   113  LYS113      0.1093
    199  NZ        22.8170    1.9390   -2.5540 N.3   113  LYS113     -0.1314
    200  N         20.9510    4.5080    5.0860 N.am  114  ILE114     -0.1980
    201  CA        20.5090    3.9960    6.3720 C.3   114  ILE114      0.1595
    202  C         19.2860    4.7500    6.8990 C.2   114  ILE114      0.2287
    203  O         18.5850    4.2530    7.7790 O.2   114  ILE114     -0.2864
    204  CB        21.6590    4.0420    7.4210 C.3   114  ILE114      0.0276
    205  CG1       21.3400    3.0990    8.5850 C.3   114  ILE114      0.0022
    206  CG2       21.8740    5.4640    7.9260 C.3   114  ILE114      0.0022
    207  CD1       21.3280    1.6430    8.1840 C.3   114  ILE114      0.0001
    208  N         16.1280    3.4310    9.2610 N.3   118  ILE118     -0.1245
    209  CA        15.9570    4.0720   10.5590 C.3   118  ILE118      0.1561
    210  C         14.5330    4.6010   10.7110 C.2   118  ILE118      0.2260
    211  O         13.9100    4.4440   11.7630 O.2   118  ILE118     -0.2867
    212  CB        16.9690    5.2270   10.7760 C.3   118  ILE118      0.0252
    213  CG1       18.3790    4.6590   10.9810 C.3   118  ILE118      0.0019
    214  CG2       16.5590    6.0520   12.0040 C.3   118  ILE118      0.0019
    215  CD1       19.4690    5.7230   11.1130 C.3   118  ILE118      0.0001
    216  N         22.9620   11.4980   11.0250 N.3   139  VAL139     -0.1245
    217  CA        23.5840   10.7280    9.9610 C.3   139  VAL139      0.1561
    218  C         24.3380   11.6730    9.0330 C.2   139  VAL139      0.2260
    219  O         25.3790   11.3120    8.4850 O.2   139  VAL139     -0.2867
    220  CB        22.5260    9.9500    9.1470 C.3   139  VAL139      0.0252
    221  CG1       23.1530    9.3530    7.8940 C.3   139  VAL139      0.0019
    222  CG2       21.9210    8.8420   10.0040 C.3   139  VAL139      0.0019
@<TRIPOS>BOND
     1    43    42    1
     2   199   198    1
     3   178   177   ar
     4   177   179   ar
     5   177   176    1
     6    42    40   ar
     7    42    41   ar
     8   198   197    1
     9    40    38   ar
    10   176   175    1
    11    25    26    1
    12    41    39   ar
    13    38    37   ar
    14    26    27    1
    15    26    29    1
    16   197   196    1
    17   175   172    1
    18   171   172    1
    19    39    37   ar
    20    32    33    1
    21    37    36    1
    22    31    29    1
    23    27    28    2
    24   172   173    1
    25   196   195    1
    26   155   154    2
    27    29    30    1
    28   163   164    1
    29    33    36    1
    30    33    34    1
    31   165   164    1
    32   165   166    2
    33   154   153    1
    34   164   167    1
    35   170   168    1
    36   173   174    2
    37   173   180   am
    38   195   192    1
    39    34    44   am
    40    34    35    2
    41   153   152    1
    42   153   156    1
    43   167   168    1
    44   167   169    1
    45   180   181    1
    46   192   191    1
    47   192   193    1
    48    44    45    1
    49    20    19    2
    50   156   157    1
    51   145   144    2
    52   157   158    1
    53    46    45    1
    54    46    47    2
    55   193   194    2
    56   193   200   am
    57    45    48    1
    58   181   182    1
    59   181   184    1
    60    19    18    1
    61    51    53   ar
    62    51    49   ar
    63    23    22    1
    64   182   183    2
    65    53    54   ar
    66   144   143    1
    67   184   185    1
    68    48    49    1
    69    55    56    1
    70    22    24    1
    71    22    21    1
    72    49    50   ar
    73   200   201    1
    74    18    21    1
    75    18    17    1
    76   158   159    1
    77    54    52   ar
    78    56    59    1
    79    56    57    1
    80   143   146    1
    81   143   142    1
    82   146   147    1
    83   159   160    2
    84   185   187   ar
    85   185   186   ar
    86    50    52   ar
    87   201   202    1
    88   201   204    1
    89    59    60    1
    90   187   189   ar
    91   202   203    2
    92    57    66   am
    93    57    58    2
    94   137   136    2
    95    66    67    1
    96   186   188   ar
    97   149   147   ar
    98   149   151   ar
    99   142   136   am
   100   147   148   ar
   101    12    11    2
   102   204   206    1
   103   204   205    1
   104   160   161    1
   105   160   162    1
   106   136   135    1
   107    68    67    1
   108    68    69    2
   109    60    61    1
   110   221   220    1
   111    67    70    1
   112   189   190   ar
   113   207   205    1
   114    70    71    1
   115    16    15    1
   116   151   150   ar
   117   188   190   ar
   118    11    10    1
   119    71    72    1
   120    71    73    1
   121   219   218    2
   122   148   150   ar
   123    61    62    1
   124   135   134    1
   125   135   138    1
   126   218   217    1
   127     4     3    2
   128   220   217    1
   129   220   222    1
   130   208   209    1
   131    10    13    1
   132    10     9    1
   133    62    63    2
   134    15    14    1
   135   126   125    2
   136    13    14    1
   137   217   216    1
   138   138   139    1
   139     3     9   am
   140     3     2    1
   141     7     6    1
   142    83    82   ar
   143    83    81   ar
   144    82    80   ar
   145   209   210    1
   146   209   212    1
   147    63    64    1
   148    63    65    1
   149   125   124    1
   150   210   211    2
   151   212   213    1
   152   212   214    1
   153   213   215    1
   154     8     6    1
   155    80    79   ar
   156    81    79   ar
   157   141   139   am
   158   139   140    2
   159     2     5    1
   160     2     1    1
   161     6     5    1
   162    79    78    1
   163    97    96    1
   164   124   127    1
   165   124   123    1
   166    78    75    1
   167   127   128    1
   168    96    98    1
   169    96    95    1
   170    75    76    1
   171    75    74    1
   172    95    92    1
   173   128   129   ar
   174   128   130   ar
   175   129   131   ar
   176    76    77    2
   177   121   122   ar
   178   121   119   ar
   179   122   120   ar
   180   111   109    1
   181   130   132   ar
   182    92    91    1
   183    92    93    1
   184   131   133   ar
   185   119   117   ar
   186   110   109    1
   187   120   118   ar
   188   109   108    1
   189    91    86   am
   190   103   100    1
   191    94    93    2
   192   132   133   ar
   193   117   118   ar
   194   117   116    1
   195    86    87    2
   196    86    85    1
   197    88    90    1
   198    88    85    1
   199    88    89    1
   200   108   105    1
   201   100   101    1
   202   100    99    1
   203   104   101   am
   204   104   105    1
   205   101   102    2
   206   116   113    1
   207   105   106    1
   208    85    84    1
   209   113   112    1
   210   113   114    1
   211   106   107    2
   212   114   115    2
