@<TRIPOS>MOLECULE
tmp/2r50B00.pdb
 214 206 0 0 0
SMALL
GASTEIGER

@<TRIPOS>ATOM
      1  N         19.5770   41.6280    8.8620 N.3    33  VAL33      -0.1231
      2  CA        19.1130   41.6940   10.2350 C.3    33  VAL33       0.1692
      3  C         19.3590   43.1200   10.8690 C.2    33  VAL33       0.2592
      4  O         18.4950   43.6980   11.5630 O.2    33  VAL33      -0.2718
      5  CB        19.7980   40.6260   11.1090 C.3    33  VAL33       0.0266
      6  CG1       19.4510   40.8280   12.5890 C.3    33  VAL33       0.0020
      7  CG2       19.4070   39.3000   10.7090 C.3    33  VAL33       0.0020
      8  N         20.5420   43.6670   10.6490 N.am   34  PHE34      -0.1976
      9  CA        20.9320   44.9320   11.2680 C.3    34  PHE34       0.1639
     10  C         20.2970   46.1450   10.6080 C.2    34  PHE34       0.2290
     11  O         20.0770   47.1700   11.2430 O.2    34  PHE34      -0.2864
     12  CB        22.4310   45.0320   11.2040 C.3    34  PHE34       0.0560
     13  CG        23.1450   44.0140   12.0480 C.ar   34  PHE34      -0.0200
     14  CD1       22.5900   43.5070   13.2020 C.ar   34  PHE34      -0.0042
     15  CD2       24.4530   43.6550   11.7320 C.ar   34  PHE34      -0.0042
     16  CE1       23.3300   42.6140   13.9860 C.ar   34  PHE34      -0.0003
     17  CE2       25.1340   42.7420   12.4880 C.ar   34  PHE34      -0.0003
     18  CZ        24.5790   42.2580   13.6080 C.ar   34  PHE34      -0.0000
     19  N         20.3980   45.4300   17.2920 N.3    40  ALA40      -0.1245
     20  CA        20.8270   44.0870   17.6050 C.3    40  ALA40       0.1562
     21  C         22.2890   43.9860   17.3440 C.2    40  ALA40       0.2260
     22  O         22.9120   43.0040   17.7440 O.2    40  ALA40      -0.2867
     23  CB        20.1230   43.0550   16.7810 C.3    40  ALA40       0.0290
     24  N         24.6430   43.7850   20.2520 N.3    43  MET43      -0.1230
     25  CA        24.7180   42.4920   20.9830 C.3    43  MET43       0.1702
     26  C         25.9800   41.7430   20.6650 C.2    43  MET43       0.2592
     27  O         26.3400   40.8550   21.3780 O.2    43  MET43      -0.2718
     28  CB        23.5850   41.5510   20.5960 C.3    43  MET43       0.0401
     29  CG        22.3270   41.7920   21.2580 C.3    43  MET43       0.0596
     30  SD        21.1560   40.5790   20.6560 S.3    43  MET43      -0.1393
     31  CE        19.7880   41.6410   20.1780 C.3    43  MET43       0.0692
     32  N         26.5970   42.0750   19.5360 N.am   44  PHE44      -0.1976
     33  CA        27.8850   41.4870   19.1290 C.3    44  PHE44       0.1639
     34  C         29.1050   42.3270   19.5990 C.2    44  PHE44       0.2290
     35  O         29.9980   41.7870   20.2500 O.2    44  PHE44      -0.2864
     36  CB        27.8830   41.1150   17.6260 C.3    44  PHE44       0.0560
     37  CG        26.7550   40.1490   17.2510 C.ar   44  PHE44      -0.0200
     38  CD1       25.4470   40.6020   17.1570 C.ar   44  PHE44      -0.0042
     39  CD2       26.9960   38.8140   17.0600 C.ar   44  PHE44      -0.0042
     40  CE1       24.4080   39.7620   16.8240 C.ar   44  PHE44      -0.0003
     41  CE2       25.9520   37.9390   16.7510 C.ar   44  PHE44      -0.0003
     42  CZ        24.6500   38.4080   16.6440 C.ar   44  PHE44      -0.0000
     43  N         33.6250   36.0100   13.2650 N.3    50  LYS50      -0.1245
     44  CA        32.7420   35.4660   14.2680 C.3    50  LYS50       0.1561
     45  C         31.2540   35.4660   13.7400 C.2    50  LYS50       0.2260
     46  O         30.4620   34.5820   14.0620 O.2    50  LYS50      -0.2867
     47  CB        32.9360   36.3030   15.5460 C.3    50  LYS50       0.0271
     48  CG        32.2840   35.7920   16.8050 C.3    50  LYS50       0.0035
     49  CD        31.3560   36.8880   17.4610 C.3    50  LYS50       0.0206
     50  CE        32.1090   38.0230   18.1990 C.3    50  LYS50       0.1093
     51  NZ        31.2790   39.2740   18.4190 N.3    50  LYS50      -0.1314
     52  N         30.6960   32.2970   11.4610 N.3    53  THR53      -0.1203
     53  CA        30.4080   31.1300   12.2840 C.3    53  THR53       0.1994
     54  C         29.0010   31.1210   12.8070 C.2    53  THR53       0.2617
     55  O         28.3470   30.0880   12.7680 O.2    53  THR53      -0.2717
     56  CB        31.3780   31.1120   13.5140 C.3    53  THR53       0.1784
     57  OG1       32.6110   30.5090   13.1290 O.3    53  THR53      -0.2211
     58  CG2       30.8850   30.1820   14.6970 C.3    53  THR53       0.0376
     59  N         28.5490   32.2520   13.3200 N.am   54  HIS54      -0.1975
     60  CA        27.1950   32.3710   13.7830 C.3    54  HIS54       0.1656
     61  C         26.1410   32.1570   12.6490 C.2    54  HIS54       0.2291
     62  O         25.2120   31.3840   12.7960 O.2    54  HIS54      -0.2864
     63  CB        26.9330   33.7310   14.4420 C.3    54  HIS54       0.0771
     64  CG        25.5900   33.8120   15.0950 C.ar   54  HIS54       0.0820
     65  ND1       24.4770   34.2950   14.4340 N.ar   54  HIS54      -0.2267
     66  CD2       25.1480   33.3880   16.3150 C.ar   54  HIS54       0.1154
     67  CE1       23.4120   34.1950   15.2260 C.ar   54  HIS54       0.1986
     68  NE2       23.7760   33.6050   16.3530 N.ar   54  HIS54      -0.2212
     69  N         25.8240   28.6610   11.6150 N.3    57  SER57      -0.1202
     70  CA        25.0690   27.8600   12.5840 C.3    57  SER57       0.2020
     71  C         23.5700   27.9710   12.3550 C.2    57  SER57       0.2618
     72  O         22.8550   26.9810   12.3890 O.2    57  SER57      -0.2717
     73  CB        25.3750   28.2120   14.0360 C.3    57  SER57       0.2103
     74  OG        26.7950   28.3110   14.2000 O.3    57  SER57      -0.2182
     75  N         23.1080   29.1540   12.0760 N.am   58  VAL58      -0.1979
     76  CA        21.7110   29.3380   11.8440 C.3    58  VAL58       0.1595
     77  C         21.3110   28.4640   10.6550 C.2    58  VAL58       0.2287
     78  O         20.4270   27.6930   10.7410 O.2    58  VAL58      -0.2864
     79  CB        21.3590   30.8510   11.6130 C.3    58  VAL58       0.0276
     80  CG1       19.9070   31.0110   11.2380 C.3    58  VAL58       0.0022
     81  CG2       21.6330   31.6930   12.8680 C.3    58  VAL58       0.0022
     82  N         21.9080   24.4350   11.4060 N.3    61  MET61      -0.1182
     83  CA        20.9850   23.8250   12.3160 C.3    61  MET61       0.1917
     84  C         19.5500   23.9540   11.8100 C.2    61  MET61       0.2635
     85  O         18.7650   23.0760   12.0290 O.2    61  MET61      -0.2714
     86  CB        21.0800   24.4030   13.7090 C.2    61  MET61       0.0083
     87  CG        22.3470   24.2280   14.3590 C.2    61  MET61       0.0282
     88  SD        22.5300   24.9950   16.0070 S.3    61  MET61      -0.1125
     89  CE        21.8110   23.7150   16.8940 C.3    61  MET61       0.0742
     90  N         19.2010   25.0240   11.1290 N.am   62  THR62      -0.1950
     91  CA        17.8550   25.1500   10.6160 C.3    62  THR62       0.1897
     92  C         17.6350   24.0560    9.5460 C.2    62  THR62       0.2313
     93  O         16.5540   23.4480    9.4620 O.2    62  THR62      -0.2863
     94  CB        17.6900   26.4940    9.9840 C.3    62  THR62       0.1794
     95  OG1       17.6800   27.5290   10.9700 O.3    62  THR62      -0.2208
     96  CG2       16.3040   26.6030    9.3010 C.3    62  THR62       0.0378
     97  N         22.4730   24.8200   26.2190 N.3    84  ARG84      -0.1231
     98  CA        23.5830   25.7170   26.0990 C.3    84  ARG84       0.1694
     99  C         23.1710   26.8900   25.1660 C.2    84  ARG84       0.2591
    100  O         23.4840   28.0440   25.4520 O.2    84  ARG84      -0.2718
    101  CB        24.8040   24.9500   25.5750 C.3    84  ARG84       0.0321
    102  CG        26.0620   25.8570   25.2620 C.3    84  ARG84       0.0489
    103  CD        27.1280   25.2050   24.3970 C.3    84  ARG84       0.2205
    104  NE        26.5800   24.6790   23.1200 N.pl3  84  ARG84      -0.0865
    105  CZ        27.2810   23.9870   22.1610 C.cat  84  ARG84       0.5346
    106  NH1       28.6150   23.7050   22.3130 N.pl3  84  ARG84       0.1354
    107  NH2       26.6420   23.5910   21.0410 N.pl3  84  ARG84       0.1354
    108  N         22.4630   26.5920   24.0680 N.am   85  LEU85      -0.1980
    109  CA        21.9590   27.6320   23.1730 C.3    85  LEU85       0.1596
    110  C         20.9540   28.5870   23.8780 C.2    85  LEU85       0.2287
    111  O         21.0330   29.7950   23.7220 O.2    85  LEU85      -0.2864
    112  CB        21.2970   27.0160   21.9630 C.3    85  LEU85       0.0297
    113  CG        22.2350   26.4320   20.9090 C.3    85  LEU85       0.0022
    114  CD1       21.4360   25.6750   19.8290 C.3    85  LEU85       0.0001
    115  CD2       23.0310   27.4650   20.2480 C.3    85  LEU85       0.0001
    116  N         23.0090   30.7880   26.3880 N.3    88  THR88      -0.1203
    117  CA        23.8100   31.7980   25.6930 C.3    88  THR88       0.1994
    118  C         22.9770   32.9810   25.2180 C.2    88  THR88       0.2617
    119  O         23.4290   34.1290   25.3730 O.2    88  THR88      -0.2717
    120  CB        24.5020   31.1680   24.4980 C.3    88  THR88       0.1784
    121  OG1       25.4970   30.3420   24.9880 O.3    88  THR88      -0.2211
    122  CG2       25.2240   32.2730   23.6100 C.3    88  THR88       0.0376
    123  N         21.8180   32.7140   24.5940 N.am   89  HIS89      -0.1975
    124  CA        20.9740   33.8030   24.0610 C.3    89  HIS89       0.1656
    125  C         20.3350   34.5870   25.1740 C.2    89  HIS89       0.2291
    126  O         20.1760   35.7950   25.0560 O.2    89  HIS89      -0.2864
    127  CB        19.9640   33.2900   23.0470 C.3    89  HIS89       0.0771
    128  CG        20.6160   32.6340   21.8480 C.ar   89  HIS89       0.0820
    129  ND1       21.0830   31.3340   21.8590 N.ar   89  HIS89      -0.2267
    130  CD2       20.9470   33.1330   20.6420 C.ar   89  HIS89       0.1154
    131  CE1       21.6290   31.0530   20.7040 C.ar   89  HIS89       0.1986
    132  NE2       21.5910   32.1370   19.9510 N.ar   89  HIS89      -0.2212
    133  N         22.8450   36.9930   26.3800 N.3    92  TYR92      -0.1241
    134  CA        23.0460   38.1090   25.4630 C.3    92  TYR92       0.1605
    135  C         21.8140   38.9580   25.2340 C.2    92  TYR92       0.2264
    136  O         21.8250   39.8950   24.4730 O.2    92  TYR92      -0.2867
    137  CB        23.6130   37.5820   24.1420 C.3    92  TYR92       0.0534
    138  CG        25.1300   37.2710   24.2720 C.ar   92  TYR92      -0.0201
    139  CD1       25.5850   36.0950   24.8170 C.ar   92  TYR92      -0.0009
    140  CD2       26.1210   38.2150   23.8970 C.ar   92  TYR92      -0.0009
    141  CE1       26.9160   35.8380   24.9780 C.ar   92  TYR92       0.0417
    142  CE2       27.4680   37.9070   24.0440 C.ar   92  TYR92       0.0417
    143  CZ        27.8370   36.7370   24.5950 C.ar   92  TYR92       0.1957
    144  OH        29.1790   36.4140   24.7430 O.3    92  TYR92      -0.2866
    145  N         18.6170   38.0480   24.0670 N.3    94  VAL94      -0.1245
    146  CA        17.9360   37.8460   22.8210 C.3    94  VAL94       0.1561
    147  C         16.4480   37.6370   23.1030 C.2    94  VAL94       0.2260
    148  O         16.0870   36.6840   23.7430 O.2    94  VAL94      -0.2867
    149  CB        18.4950   36.6630   22.0670 C.3    94  VAL94       0.0252
    150  CG1       17.7780   36.4250   20.7350 C.3    94  VAL94       0.0019
    151  CG2       20.0140   36.8780   21.7690 C.3    94  VAL94       0.0019
    152  N         13.8460   39.4180   18.4220 N.3    98  HIS98      -0.1226
    153  CA        15.1000   39.2770   17.7320 C.3    98  HIS98       0.1752
    154  C         15.1000   37.9980   16.8910 C.2    98  HIS98       0.2596
    155  O         15.5560   37.9830   15.7320 O.2    98  HIS98      -0.2718
    156  CB        16.2360   39.2220   18.7340 C.3    98  HIS98       0.0759
    157  CG        16.3720   40.4530   19.5190 C.ar   98  HIS98       0.0818
    158  ND1       16.0690   40.4880   20.8500 N.ar   98  HIS98      -0.2268
    159  CD2       16.6960   41.7170   19.1600 C.ar   98  HIS98       0.1154
    160  CE1       16.2560   41.7200   21.3010 C.ar   98  HIS98       0.1986
    161  NE2       16.6360   42.4910   20.2990 N.ar   98  HIS98      -0.2212
    162  N         14.5770   36.9160   17.4720 N.am   99  PHE99      -0.1976
    163  CA        14.4300   35.6870   16.7270 C.3    99  PHE99       0.1639
    164  C         13.5320   35.8660   15.4950 C.2    99  PHE99       0.2290
    165  O         13.7070   35.2360   14.4410 O.2    99  PHE99      -0.2864
    166  CB        13.8490   34.6070   17.6670 C.3    99  PHE99       0.0560
    167  CG        14.8470   33.9900   18.6310 C.ar   99  PHE99      -0.0200
    168  CD1       14.5950   34.0440   19.9960 C.ar   99  PHE99      -0.0042
    169  CD2       15.9120   33.2830   18.1860 C.ar   99  PHE99      -0.0042
    170  CE1       15.4370   33.4590   20.8760 C.ar   99  PHE99      -0.0003
    171  CE2       16.8140   32.6650   19.0590 C.ar   99  PHE99      -0.0003
    172  CZ        16.5990   32.7770   20.4000 C.ar   99  PHE99      -0.0000
    173  N         15.2460   37.8040   12.7310 N.3   102  THR102     -0.1218
    174  CA        16.2340   36.9530   12.1120 C.3   102  THR102      0.1862
    175  C         15.6250   35.9060   11.1970 C.2   102  THR102      0.2287
    176  O         16.1180   35.7050   10.0900 O.2   102  THR102     -0.2866
    177  CB        17.0880   36.2830   13.1750 C.3   102  THR102      0.1770
    178  OG1       17.7180   37.2710   13.9800 O.3   102  THR102     -0.2211
    179  CG2       18.2480   35.4780   12.5600 C.3   102  THR102      0.0375
    180  N         12.9580   26.7240   10.8340 N.3   131  TYR131     -0.1241
    181  CA        13.6000   27.7450   11.6740 C.3   131  TYR131      0.1605
    182  C         12.7400   28.0460   12.8810 C.2   131  TYR131      0.2264
    183  O         13.2050   28.0260   13.9700 O.2   131  TYR131     -0.2867
    184  CB        13.8200   29.0210   10.8550 C.3   131  TYR131      0.0534
    185  CG        14.3100   30.1770   11.6740 C.ar  131  TYR131     -0.0201
    186  CD1       13.4470   31.0620   12.1860 C.ar  131  TYR131     -0.0009
    187  CD2       15.7090   30.3630   11.9470 C.ar  131  TYR131     -0.0009
    188  CE1       13.8980   32.1390   12.9750 C.ar  131  TYR131      0.0417
    189  CE2       16.1270   31.4250   12.7350 C.ar  131  TYR131      0.0417
    190  CZ        15.1930   32.3120   13.2590 C.ar  131  TYR131      0.1957
    191  OH        15.5890   33.4140   14.0140 O.3   131  TYR131     -0.2866
    192  N         12.9090   25.3010   15.3380 N.3   134  LEU134     -0.1231
    193  CA        14.2170   25.3500   16.0400 C.3   134  LEU134      0.1693
    194  C         14.2370   26.4210   17.1600 C.2   134  LEU134      0.2591
    195  O         14.7850   26.1820   18.2070 O.2   134  LEU134     -0.2718
    196  CB        15.3360   25.6430   15.0440 C.3   134  LEU134      0.0284
    197  CG        16.8060   25.8730   15.5190 C.3   134  LEU134      0.0019
    198  CD1       17.2880   24.7640   16.3760 C.3   134  LEU134      0.0001
    199  CD2       17.6580   26.0090   14.2770 C.3   134  LEU134      0.0001
    200  N         13.6890   27.6050   16.8890 N.am  135  VAL135     -0.1980
    201  CA        13.7180   28.6630   17.8520 C.3   135  VAL135      0.1595
    202  C         12.8050   28.2650   19.0390 C.2   135  VAL135      0.2287
    203  O         13.1340   28.5320   20.1450 O.2   135  VAL135     -0.2864
    204  CB        13.2100   29.9270   17.2460 C.3   135  VAL135      0.0276
    205  CG1       12.9820   31.0190   18.3000 C.3   135  VAL135      0.0022
    206  CG2       14.1520   30.4230   16.2300 C.3   135  VAL135      0.0022
    207  N         14.8310   26.2000   21.2690 N.3   138  ILE138     -0.1245
    208  CA        15.8560   26.9920   22.0040 C.3   138  ILE138      0.1561
    209  C         15.1590   27.7110   23.1560 C.2   138  ILE138      0.2260
    210  O         15.5870   27.6440   24.2970 O.2   138  ILE138     -0.2867
    211  CB        16.4930   28.0340   21.0800 C.3   138  ILE138      0.0252
    212  CG1       17.3420   27.2980   20.0520 C.3   138  ILE138      0.0019
    213  CG2       17.3320   29.0800   21.8730 C.3   138  ILE138      0.0019
    214  CD1       18.2030   28.2190   19.2650 C.3   138  ILE138      0.0001
@<TRIPOS>BOND
     1     1     2    1
     2    96    94    1
     3    93    92    2
     4    92    91    1
     5    94    91    1
     6    94    95    1
     7   176   175    2
     8     2     3    1
     9     2     5    1
    10    10    11    2
    11    10     9    1
    12    91    90    1
    13     8     3   am
    14     8     9    1
    15    77    78    2
    16    77    76    1
    17     7     5    1
    18   180   181    1
    19   184   181    1
    20   184   185    1
    21     3     4    2
    22     5     6    1
    23    90    84   am
    24   175   174    1
    25    12     9    1
    26    12    13    1
    27    80    79    1
    28    82    83    1
    29    52    53    1
    30    79    76    1
    31    79    81    1
    32    69    70    1
    33   181   182    1
    34   185   187   ar
    35   185   186   ar
    36    15    13   ar
    37    15    17   ar
    38    84    85    2
    39    84    83    1
    40    76    75    1
    41   187   189   ar
    42    13    14   ar
    43    75    71   am
    44   174   173    1
    45   174   177    1
    46   186   188   ar
    47    53    54    1
    48    53    56    1
    49    83    86    1
    50    71    72    2
    51    71    70    1
    52    17    18   ar
    53   179   177    1
    54    70    73    1
    55    61    62    2
    56    61    60    1
    57   189   190   ar
    58    55    54    2
    59    54    59   am
    60   182   183    2
    61   188   190   ar
    62    57    56    1
    63   177   178    1
    64    14    16   ar
    65   190   191    1
    66    43    44    1
    67    59    60    1
    68    56    58    1
    69    18    16   ar
    70    86    87    2
    71    45    46    2
    72    45    44    1
    73    60    63    1
    74    73    74    1
    75    44    47    1
    76   199   197    1
    77    87    88    1
    78    65    64   ar
    79    65    67   ar
    80   165   164    2
    81    63    64    1
    82   196   197    1
    83   196   193    1
    84    64    66   ar
    85    67    68   ar
    86   192   193    1
    87   164   163    1
    88   197   198    1
    89    47    48    1
    90   155   154    2
    91    88    89    1
    92   193   194    1
    93   206   204    1
    94    66    68   ar
    95    42    41   ar
    96    42    40   ar
    97   163   162    1
    98   163   166    1
    99    41    39   ar
   100    23    20    1
   101    48    49    1
   102    40    38   ar
   103   200   194   am
   104   200   201    1
   105   154   162   am
   106   154   153    1
   107    39    37   ar
   108    38    37   ar
   109   194   195    2
   110   204   201    1
   111   204   205    1
   112    37    36    1
   113    19    20    1
   114    21    20    1
   115    21    22    2
   116    49    50    1
   117    36    33    1
   118   166   167    1
   119   153   152    1
   120   153   156    1
   121   201   202    1
   122   169   167   ar
   123   169   171   ar
   124    50    51    1
   125   167   168   ar
   126   156   157    1
   127   202   203    2
   128   171   172   ar
   129    33    32    1
   130    33    34    1
   131   159   157   ar
   132   159   161   ar
   133   214   212    1
   134   157   158   ar
   135    32    26   am
   136    34    35    2
   137   114   113    1
   138   132   130   ar
   139   132   131   ar
   140   168   170   ar
   141   212   211    1
   142    31    30    1
   143   115   113    1
   144    24    25    1
   145   161   160   ar
   146   172   170   ar
   147    28    25    1
   148    28    29    1
   149   130   128   ar
   150    30    29    1
   151    26    25    1
   152    26    27    2
   153   131   129   ar
   154   150   149    1
   155   158   160   ar
   156   113   112    1
   157   107   105    1
   158   211   213    1
   159   211   208    1
   160   207   208    1
   161   151   149    1
   162   128   129   ar
   163   128   127    1
   164   112   109    1
   165   208   209    1
   166   149   146    1
   167   105   106    1
   168   105   104    2
   169   146   147    1
   170   146   145    1
   171   127   124    1
   172   147   148    2
   173   104   103    1
   174   209   210    2
   175   109   110    1
   176   109   108    1
   177   122   120    1
   178   111   110    2
   179   140   142   ar
   180   140   138   ar
   181   142   143   ar
   182   124   123    1
   183   124   125    1
   184   108    99   am
   185   137   138    1
   186   137   134    1
   187   138   139   ar
   188   103   102    1
   189   136   135    2
   190   120   121    1
   191   120   117    1
   192   123   118   am
   193   143   144    1
   194   143   141   ar
   195   139   141   ar
   196   126   125    2
   197    99   100    2
   198    99    98    1
   199   118   119    2
   200   118   117    1
   201   135   134    1
   202   102   101    1
   203   134   133    1
   204   101    98    1
   205   117   116    1
   206    98    97    1
