@<TRIPOS>MOLECULE
tmp/2r56A00.pdb
 164 148 0 0 0
SMALL
GASTEIGER

@<TRIPOS>ATOM
      1  N         -3.1550    2.4660   -2.5480 N.3    35  PRO35      -0.2102
      2  CA        -3.3220    1.0380   -2.8210 C.3    35  PRO35       0.1504
      3  C         -4.6090    0.6690   -3.5620 C.2    35  PRO35       0.2575
      4  O         -4.7610   -0.4600   -4.0280 O.2    35  PRO35      -0.2718
      5  CB        -3.2590    0.4260   -1.4250 C.3    35  PRO35       0.0282
      6  CG        -3.9240    1.4710   -0.5880 C.3    35  PRO35       0.0208
      7  CD        -3.3150    2.7450   -1.1060 C.3    35  PRO35       0.0893
      8  N         -5.5390    1.6110   -3.6660 N.am   36  LEU36      -0.1980
      9  CA        -6.7930    1.3340   -4.3570 C.3    36  LEU36       0.1596
     10  C         -7.1050    2.4200   -5.3440 C.2    36  LEU36       0.2287
     11  O         -8.2160    2.4980   -5.8540 O.2    36  LEU36      -0.2864
     12  CB        -7.9470    1.2140   -3.3660 C.3    36  LEU36       0.0297
     13  CG        -7.9720   -0.0130   -2.4580 C.3    36  LEU36       0.0022
     14  CD1       -9.2960    0.0060   -1.6840 C.3    36  LEU36       0.0001
     15  CD2       -7.8590   -1.2890   -3.2850 C.3    36  LEU36       0.0001
     16  N         -6.8220    3.0160   -8.4890 N.3    38  VAL38      -0.1245
     17  CA        -6.5930    2.4420   -9.7960 C.3    38  VAL38       0.1561
     18  C         -7.4910    3.1130  -10.8160 C.2    38  VAL38       0.2260
     19  O         -8.5170    3.6860  -10.4580 O.2    38  VAL38      -0.2867
     20  CB        -6.8810    0.9530   -9.7650 C.3    38  VAL38       0.0252
     21  CG1       -6.2420    0.3490   -8.5400 C.3    38  VAL38       0.0019
     22  CG2       -8.3550    0.7160   -9.7690 C.3    38  VAL38       0.0019
     23  N         -9.4070    2.3290  -14.4800 N.3    40  VAL40      -0.1245
     24  CA        -9.8580    1.3670  -15.4780 C.3    40  VAL40       0.1561
     25  C         -9.6610    1.9670  -16.8690 C.2    40  VAL40       0.2260
     26  O         -9.8880    3.1620  -17.0810 O.2    40  VAL40      -0.2867
     27  CB       -11.3670    1.0450  -15.2940 C.3    40  VAL40       0.0252
     28  CG1      -11.8140   -0.0360  -16.2780 C.3    40  VAL40       0.0019
     29  CG2      -11.6280    0.6100  -13.8660 C.3    40  VAL40       0.0019
     30  N        -12.0650   -3.1290  -20.6730 N.3    43  LEU43      -0.1245
     31  CA       -12.7320   -4.3080  -20.1380 C.3    43  LEU43       0.1561
     32  C        -12.8310   -5.2970  -21.3010 C.2    43  LEU43       0.2260
     33  O        -13.5720   -5.0790  -22.2550 O.2    43  LEU43      -0.2867
     34  CB       -14.1290   -3.9680  -19.5950 C.3    43  LEU43       0.0270
     35  CG       -14.1630   -3.2560  -18.2430 C.3    43  LEU43       0.0019
     36  CD1      -15.5890   -3.0160  -17.8230 C.3    43  LEU43       0.0001
     37  CD2      -13.4180   -4.0940  -17.2090 C.3    43  LEU43       0.0001
     38  N        -13.6120  -11.7210  -17.0730 N.3    51  LEU51      -0.1245
     39  CA       -13.4110  -10.3640  -17.5550 C.3    51  LEU51       0.1561
     40  C        -11.9800   -9.8740  -17.3140 C.2    51  LEU51       0.2260
     41  O        -11.5470   -9.7250  -16.1700 O.2    51  LEU51      -0.2867
     42  CB       -14.4020   -9.4370  -16.8580 C.3    51  LEU51       0.0270
     43  CG       -14.5430   -8.0330  -17.4260 C.3    51  LEU51       0.0019
     44  CD1      -14.9490   -8.1120  -18.8880 C.3    51  LEU51       0.0001
     45  CD2      -15.5750   -7.2770  -16.6180 C.3    51  LEU51       0.0001
     46  N         -9.1080   -7.0640  -17.2950 N.3    53  ILE53      -0.1245
     47  CA        -9.1540   -5.6390  -17.0450 C.3    53  ILE53       0.1561
     48  C         -7.8120   -4.9760  -17.2020 C.2    53  ILE53       0.2260
     49  O         -6.8320   -5.3760  -16.5790 O.2    53  ILE53      -0.2867
     50  CB        -9.6620   -5.3620  -15.6320 C.3    53  ILE53       0.0252
     51  CG1      -11.0870   -5.8570  -15.5080 C.3    53  ILE53       0.0019
     52  CG2       -9.5710   -3.8750  -15.3120 C.3    53  ILE53       0.0019
     53  CD1      -11.3380   -6.5330  -14.2240 C.3    53  ILE53       0.0001
     54  N         -5.7020   -1.7420  -16.5020 N.3    55  LEU55      -0.1245
     55  CA        -5.7520   -0.5780  -15.6320 C.3    55  LEU55       0.1561
     56  C         -4.3980    0.0170  -15.2850 C.2    55  LEU55       0.2260
     57  O         -3.3540   -0.5570  -15.5970 O.2    55  LEU55      -0.2867
     58  CB        -6.5040   -0.9280  -14.3500 C.3    55  LEU55       0.0270
     59  CG        -5.9110   -2.0340  -13.4790 C.3    55  LEU55       0.0019
     60  CD1       -4.7740   -1.4730  -12.6440 C.3    55  LEU55       0.0001
     61  CD2       -6.9880   -2.5950  -12.5570 C.3    55  LEU55       0.0001
     62  N         -2.1460    2.2280  -12.0630 N.3    57  LYS57      -0.1245
     63  CA        -2.0640    2.5630  -10.6480 C.3    57  LYS57       0.1561
     64  C         -0.6330    2.9190  -10.2970 C.2    57  LYS57       0.2260
     65  O          0.3040    2.3790  -10.8840 O.2    57  LYS57      -0.2867
     66  CB        -2.5470    1.4060   -9.7720 C.3    57  LYS57       0.0271
     67  CG        -1.8380    0.0980  -10.0100 C.3    57  LYS57       0.0035
     68  CD        -2.4530   -1.0100   -9.1560 C.3    57  LYS57       0.0206
     69  CE        -1.9040   -2.3790   -9.5540 C.3    57  LYS57       0.1093
     70  NZ        -2.3160   -3.4730   -8.6160 N.3    57  LYS57      -0.1314
     71  N         -5.6460   -7.3930  -15.1630 N.3    68  ILE68      -0.1245
     72  CA        -6.2560   -8.2170  -14.1390 C.3    68  ILE68       0.1561
     73  C         -7.4020   -9.0280  -14.6880 C.2    68  ILE68       0.2260
     74  O         -8.0920   -8.5940  -15.6010 O.2    68  ILE68      -0.2867
     75  CB        -6.7840   -7.3420  -12.9950 C.3    68  ILE68       0.0252
     76  CG1       -5.6340   -6.5190  -12.4060 C.3    68  ILE68       0.0019
     77  CG2       -7.4490   -8.2010  -11.9450 C.3    68  ILE68       0.0019
     78  CD1       -4.4110   -7.3200  -12.0370 C.3    68  ILE68       0.0001
     79  N        -10.9890  -11.5820   -7.9410 N.3    81  ILE81      -0.1245
     80  CA        -9.6340  -11.3570   -8.4220 C.3    81  ILE81       0.1561
     81  C         -8.7130  -12.3090   -7.6820 C.2    81  ILE81       0.2260
     82  O         -8.6530  -12.2950   -6.4530 O.2    81  ILE81      -0.2867
     83  CB        -9.1730   -9.9290   -8.1330 C.3    81  ILE81       0.0252
     84  CG1      -10.1590   -8.9290   -8.7240 C.3    81  ILE81       0.0019
     85  CG2       -7.7890   -9.7060   -8.7190 C.3    81  ILE81       0.0019
     86  CD1      -10.0970   -7.5720   -8.0590 C.3    81  ILE81       0.0001
     87  N         -5.7250  -12.1950   -7.1290 N.3    83  ALA83      -0.1231
     88  CA        -4.6550  -11.5330   -6.3860 C.3    83  ALA83       0.1694
     89  C         -4.8430  -11.8170   -4.8960 C.2    83  ALA83       0.2592
     90  O         -5.9100  -12.2730   -4.4770 O.2    83  ALA83      -0.2718
     91  CB        -4.6860  -10.0280   -6.6440 C.3    83  ALA83       0.0304
     92  N         -3.8140  -11.5510   -4.0970 N.am   84  LEU84      -0.1966
     93  CA        -3.8930  -11.7920   -2.6550 C.3    84  LEU84       0.1728
     94  C         -5.0430  -10.9890   -2.0450 C.2    84  LEU84       0.2616
     95  O         -5.5990  -10.0860   -2.6830 O.2    84  LEU84      -0.2715
     96  CB        -2.5720  -11.4060   -1.9670 C.3    84  LEU84       0.0311
     97  CG        -2.3290  -11.8770   -0.5200 C.3    84  LEU84       0.0022
     98  CD1       -2.1500  -13.3880   -0.4990 C.3    84  LEU84       0.0001
     99  CD2       -1.0840  -11.2010    0.0510 C.3    84  LEU84       0.0001
    100  N         -5.3830  -11.3260   -0.8020 N.am   85  ASN85      -0.1972
    101  CA        -6.4570  -10.6640   -0.0640 C.3    85  ASN85       0.1688
    102  C         -7.8380  -11.0670   -0.6060 C.2    85  ASN85       0.2292
    103  O         -8.8510  -10.9130    0.0840 O.2    85  ASN85      -0.2864
    104  CB        -6.2990   -9.1320   -0.1430 C.3    85  ASN85       0.1181
    105  CG        -4.8490   -8.6700    0.0320 C.2    85  ASN85       0.2629
    106  OD1       -4.1640   -9.0510    0.9890 O.2    85  ASN85      -0.2716
    107  ND2       -4.3870   -7.8310   -0.8910 N.am   85  ASN85      -0.0877
    108  N         -9.6300   -9.8290   -3.4480 N.3    87  ASN87      -0.1240
    109  CA       -10.4600   -8.6710   -3.7270 C.3    87  ASN87       0.1653
    110  C        -11.7150   -9.0960   -4.5010 C.2    87  ASN87       0.2266
    111  O        -11.6250   -9.8590   -5.4580 O.2    87  ASN87      -0.2867
    112  CB        -9.6470   -7.6460   -4.5330 C.3    87  ASN87       0.1155
    113  CG        -8.9280   -6.6340   -3.6460 C.2    87  ASN87       0.2627
    114  OD1       -9.5080   -5.6310   -3.2160 O.2    87  ASN87      -0.2716
    115  ND2       -7.6630   -6.8990   -3.3640 N.am   87  ASN87      -0.0877
    116  N        -15.1500   -7.8390   -6.6190 N.3    89  VAL89      -0.1245
    117  CA       -15.7030   -6.7210   -7.3560 C.3    89  VAL89       0.1561
    118  C        -17.2100   -6.9390   -7.5020 C.2    89  VAL89       0.2260
    119  O        -17.6580   -8.0580   -7.7310 O.2    89  VAL89      -0.2867
    120  CB       -15.0350   -6.6380   -8.7320 C.3    89  VAL89       0.0252
    121  CG1      -15.4870   -5.4020   -9.4600 C.3    89  VAL89       0.0019
    122  CG2      -13.5260   -6.6470   -8.5580 C.3    89  VAL89       0.0019
    123  N        -20.7000   -5.2500   -9.4230 N.3    91  VAL91      -0.1245
    124  CA       -21.2340   -4.2620  -10.3590 C.3    91  VAL91       0.1561
    125  C        -22.5820   -3.7950   -9.8230 C.2    91  VAL91       0.2260
    126  O        -23.5650   -4.5360   -9.8430 O.2    91  VAL91      -0.2867
    127  CB       -21.4020   -4.8690  -11.7850 C.3    91  VAL91       0.0252
    128  CG1      -21.9670   -3.8410  -12.7350 C.3    91  VAL91       0.0019
    129  CG2      -20.0720   -5.3680  -12.2910 C.3    91  VAL91       0.0019
    130  N        -21.0810    2.9730  -15.6360 N.3   100  LEU100     -0.1245
    131  CA       -20.9790    1.6900  -14.9540 C.3   100  LEU100      0.1561
    132  C        -20.4880    1.9480  -13.5260 C.2   100  LEU100      0.2260
    133  O        -19.5410    2.6920  -13.3130 O.2   100  LEU100     -0.2867
    134  CB       -20.0220    0.7430  -15.6940 C.3   100  LEU100      0.0270
    135  CG       -19.9830   -0.6820  -15.1150 C.3   100  LEU100      0.0019
    136  CD1      -19.5860   -1.6760  -16.1520 C.3   100  LEU100      0.0001
    137  CD2      -19.0490   -0.7200  -13.9300 C.3   100  LEU100      0.0001
    138  N        -19.2020    0.2320   -9.8290 N.3   102  PHE102     -0.1241
    139  CA       -18.7480   -0.9690   -9.1530 C.3   102  PHE102      0.1605
    140  C        -17.9960   -0.6150   -7.8770 C.2   102  PHE102      0.2264
    141  O        -17.5980    0.5350   -7.6750 O.2   102  PHE102     -0.2867
    142  CB       -17.8290   -1.7820  -10.0680 C.3   102  PHE102      0.0534
    143  CG       -16.4890   -1.1400  -10.2920 C.ar  102  PHE102     -0.0203
    144  CD1      -16.3370   -0.1290  -11.2490 C.ar  102  PHE102     -0.0042
    145  CD2      -15.3910   -1.4940   -9.4820 C.ar  102  PHE102     -0.0042
    146  CE1      -15.1180    0.5210  -11.3940 C.ar  102  PHE102     -0.0003
    147  CE2      -14.1640   -0.8570   -9.6060 C.ar  102  PHE102     -0.0003
    148  CZ       -14.0160    0.1560  -10.5630 C.ar  102  PHE102     -0.0000
    149  N        -15.1150   -2.5210   -4.8460 N.3   104  MET104     -0.1245
    150  CA       -14.2050   -3.6250   -4.6520 C.3   104  MET104      0.1570
    151  C        -13.7790   -3.6920   -3.2020 C.2   104  MET104      0.2261
    152  O        -13.4580   -2.6700   -2.6060 O.2   104  MET104     -0.2867
    153  CB       -12.9990   -3.4830   -5.5750 C.3   104  MET104      0.0387
    154  CG       -12.2010   -2.2280   -5.3820 C.3   104  MET104      0.0595
    155  SD       -11.1470   -1.9070   -6.8050 S.3   104  MET104     -0.1393
    156  CE       -11.3130   -0.1290   -6.9390 C.3   104  MET104      0.0692
    157  N        -17.4390    4.6210  -13.7110 N.3   119  LEU119     -0.1245
    158  CA       -16.7960    4.5830  -15.0160 C.3   119  LEU119      0.1561
    159  C        -17.7080    5.1920  -16.0850 C.2   119  LEU119      0.2260
    160  O        -18.9090    5.3340  -15.8710 O.2   119  LEU119     -0.2867
    161  CB       -16.4720    3.1330  -15.3900 C.3   119  LEU119      0.0270
    162  CG       -15.5440    2.3080  -14.5070 C.3   119  LEU119      0.0019
    163  CD1      -15.2720    0.9460  -15.1640 C.3   119  LEU119      0.0001
    164  CD2      -14.2470    3.0510  -14.2880 C.3   119  LEU119      0.0001
@<TRIPOS>BOND
     1    33    32    2
     2    32    31    1
     3    30    31    1
     4    31    34    1
     5    34    35    1
     6    44    43    1
     7    35    36    1
     8    35    37    1
     9    39    40    1
    10    39    38    1
    11    39    42    1
    12    43    42    1
    13    43    45    1
    14    40    41    2
    15    46    47    1
    16    48    47    1
    17    48    49    2
    18    26    25    2
    19    47    50    1
    20    25    24    1
    21    54    55    1
    22    28    27    1
    23   136   135    1
    24   159   160    2
    25   159   158    1
    26   134   135    1
    27   134   131    1
    28   130   131    1
    29    50    51    1
    30    50    52    1
    31    55    56    1
    32    55    58    1
    33    74    73    2
    34    57    56    2
    35    51    53    1
    36    24    27    1
    37    24    23    1
    38   161   158    1
    39   161   162    1
    40    27    29    1
    41   163   162    1
    42    71    72    1
    43   135   137    1
    44   158   157    1
    45   131   132    1
    46    73    72    1
    47   162   164    1
    48    58    59    1
    49    72    75    1
    50   132   133    2
    51    59    60    1
    52    59    61    1
    53    75    76    1
    54    75    77    1
    55   128   127    1
    56    76    78    1
    57   129   127    1
    58    62    63    1
    59   127   124    1
    60   146   144   ar
    61   146   148   ar
    62   144   143   ar
    63    65    64    2
    64    18    19    2
    65    18    17    1
    66    63    64    1
    67    63    66    1
    68   148   147   ar
    69   124   125    1
    70   124   123    1
    71   143   142    1
    72   143   145   ar
    73   142   139    1
    74    67    66    1
    75    67    68    1
    76   126   125    2
    77   138   139    1
    78    17    20    1
    79    17    16    1
    80    22    20    1
    81    20    21    1
    82   147   145   ar
    83    69    68    1
    84    69    70    1
    85   121   120    1
    86   139   140    1
    87   120   122    1
    88   120   117    1
    89    84    83    1
    90    84    86    1
    91    85    83    1
    92    80    83    1
    93    80    79    1
    94    80    81    1
    95   140   141    2
    96   119   118    2
    97    81    82    2
    98   118   117    1
    99   117   116    1
   100    87    88    1
   101   156   155    1
   102   155   154    1
   103    91    88    1
   104    88    89    1
   105    11    10    2
   106   153   154    1
   107   153   150    1
   108   111   110    2
   109    10     9    1
   110    89    90    2
   111    89    92   am
   112   149   150    1
   113   150   151    1
   114   112   109    1
   115   112   113    1
   116   110   109    1
   117     9     8    1
   118     9    12    1
   119    92    93    1
   120     4     3    2
   121   109   108    1
   122     8     3   am
   123   113   115   am
   124   113   114    2
   125     3     2    1
   126    12    13    1
   127    15    13    1
   128   151   152    2
   129     2     1    1
   130     2     5    1
   131    95    94    2
   132    93    94    1
   133    93    96    1
   134     1     7    1
   135    13    14    1
   136    94   100   am
   137    96    97    1
   138     5     6    1
   139     7     6    1
   140   107   105   am
   141   100   101    1
   142   102   101    1
   143   102   103    2
   144    97    98    1
   145    97    99    1
   146   104   101    1
   147   104   105    1
   148   105   106    2
