@<TRIPOS>MOLECULE
tmp/2r59A00.pdb
 252 246 0 0 0
SMALL
GASTEIGER

@<TRIPOS>ATOM
      1  N         35.8110   -2.4840   -8.6700 N.3   134  GLN134     -0.1245
      2  CA        35.2590   -1.9560   -7.4540 C.3   134  GLN134      0.1566
      3  C         34.1270   -2.8590   -6.9950 C.2   134  GLN134      0.2260
      4  O         32.9810   -2.6750   -7.4110 O.2   134  GLN134     -0.2867
      5  CB        34.7980   -0.5080   -7.6340 C.3   134  GLN134      0.0367
      6  CG        33.9780    0.0700   -6.4190 C.3   134  GLN134      0.0905
      7  CD        34.7290    0.0160   -5.0910 C.2   134  GLN134      0.2608
      8  OE1       34.1690   -0.4250   -4.0990 O.2   134  GLN134     -0.2717
      9  NE2       35.9770    0.4740   -5.0590 N.am  134  GLN134     -0.0878
     10  N         32.8540   -3.5100   -3.7850 N.3   136  GLN136     -0.1231
     11  CA        31.9380   -3.1760   -2.6930 C.3   136  GLN136      0.1698
     12  C         30.7520   -2.3830   -3.2790 C.2   136  GLN136      0.2592
     13  O         30.9500   -1.5310   -4.1750 O.2   136  GLN136     -0.2718
     14  CB        32.6590   -2.4380   -1.5310 C.3   136  GLN136      0.0381
     15  CG        31.7780   -2.4090   -0.2530 C.3   136  GLN136      0.0905
     16  CD        32.4290   -1.6800    0.8770 C.2   136  GLN136      0.2608
     17  OE1       33.5030   -1.1200    0.6720 O.2   136  GLN136     -0.2717
     18  NE2       31.8470   -1.7670    2.1090 N.am  136  GLN136     -0.0878
     19  N         29.5080   -2.6770   -2.8590 N.am  137  ALA137     -0.1980
     20  CA        29.1130   -3.7270   -1.9090 C.3   137  ALA137      0.1597
     21  C         28.9170   -5.1020   -2.5520 C.2   137  ALA137      0.2287
     22  O         29.3930   -6.1190   -2.0320 O.2   137  ALA137     -0.2864
     23  CB        27.7540   -3.3060   -1.2330 C.3   137  ALA137      0.0319
     24  N         35.4060    6.1890   -8.4100 N.3   266  PRO266     -0.2102
     25  CA        34.1780    6.7720   -7.8590 C.3   266  PRO266      0.1504
     26  C         34.2840    7.1620   -6.4150 C.2   266  PRO266      0.2576
     27  O         33.4830    7.9790   -5.9820 O.2   266  PRO266     -0.2718
     28  CB        33.1350    5.6750   -8.0320 C.3   266  PRO266      0.0282
     29  CG        33.9500    4.4110   -8.2080 C.3   266  PRO266      0.0208
     30  CD        35.2310    4.7460   -8.7480 C.3   266  PRO266      0.0893
     31  N         35.2840    6.6650   -5.6950 N.am  267  TYR267     -0.1963
     32  CA        35.3310    6.9530   -4.2210 C.3   267  TYR267      0.1771
     33  C         36.5550    7.7840   -3.7920 C.2   267  TYR267      0.2620
     34  O         37.5460    7.7760   -4.4940 O.2   267  TYR267     -0.2715
     35  CB        35.2520    5.6390   -3.4160 C.3   267  TYR267      0.0574
     36  CG        33.9350    4.9550   -3.6110 C.ar  267  TYR267     -0.0198
     37  CD1       33.7940    3.8960   -4.5270 C.ar  267  TYR267     -0.0009
     38  CD2       32.7910    5.4060   -2.9380 C.ar  267  TYR267     -0.0009
     39  CE1       32.5280    3.2940   -4.7170 C.ar  267  TYR267      0.0417
     40  CE2       31.5150    4.8420   -3.1940 C.ar  267  TYR267      0.0417
     41  CZ        31.4090    3.7760   -4.0300 C.ar  267  TYR267      0.1957
     42  OH        30.1870    3.2070   -4.2010 O.3   267  TYR267     -0.2866
     43  N         36.5620    8.3770   -2.5840 N.am  268  GLY268     -0.1940
     44  CA        37.8220    8.9700   -2.1120 C.3   268  GLY268      0.2014
     45  C         38.8960    7.8640   -1.8500 C.2   268  GLY268      0.2639
     46  O         40.1140    8.0310   -2.1420 O.2   268  GLY268     -0.2714
     47  N         38.4690    6.7560   -1.2490 N.am  269  GLY269     -0.1939
     48  CA        39.3490    5.6060   -1.0190 C.3   269  GLY269      0.2014
     49  C         38.5290    4.3090   -0.9780 C.2   269  GLY269      0.2639
     50  O         37.2800    4.3170   -0.8750 O.2   269  GLY269     -0.2714
     51  N         39.2220    3.1930   -1.0530 N.am  270  MET270     -0.1963
     52  CA        38.6190    1.8690   -0.9010 C.3   270  MET270      0.1736
     53  C         39.6520    0.9790   -0.1990 C.2   270  MET270      0.2616
     54  O         40.8380    0.8720   -0.6430 O.2   270  MET270     -0.2715
     55  CB        38.2350    1.2540   -2.2450 C.3   270  MET270      0.0427
     56  CG        37.7150   -0.1800   -2.0840 C.3   270  MET270      0.0599
     57  SD        36.1230   -0.1850   -1.1310 S.3   270  MET270     -0.1393
     58  CE        36.2870   -1.8640   -0.4410 C.3   270  MET270      0.0692
     59  N         39.2060    0.3430    0.8750 N.am  271  GLU271     -0.1977
     60  CA        40.1020   -0.3460    1.8410 C.3   271  GLU271      0.1602
     61  C         40.5150   -1.7660    1.3990 C.2   271  GLU271      0.2287
     62  O         40.5780   -2.7200    2.1920 O.2   271  GLU271     -0.2864
     63  CB        39.4190   -0.3690    3.2380 C.3   271  GLU271      0.0415
     64  CG        38.1100   -1.2810    3.3370 C.3   271  GLU271      0.1163
     65  CD        36.8190   -0.5490    3.0790 C.2   271  GLU271      0.3649
     66  OE1       36.8380    0.4660    2.3060 O.co2 271  GLU271     -0.2457
     67  OE2       35.7430   -1.0450    3.5670 O.co2 271  GLU271     -0.2457
     68  N         43.0920   12.7280    5.7590 N.3   291  ASN291     -0.1225
     69  CA        42.1150   11.9830    6.5950 C.3   291  ASN291      0.1785
     70  C         41.5380   10.8060    5.8170 C.2   291  ASN291      0.2597
     71  O         41.1230    9.8250    6.3820 O.2   291  ASN291     -0.2718
     72  CB        40.9830   12.8760    7.0840 C.3   291  ASN291      0.1169
     73  CG        40.0360   13.2330    6.0120 C.2   291  ASN291      0.2627
     74  OD1       40.3980   13.9990    5.1450 O.2   291  ASN291     -0.2716
     75  ND2       38.8330   12.6110    5.9980 N.am  291  ASN291     -0.0877
     76  N         41.4960   10.9220    4.4970 N.am  292  VAL292     -0.1980
     77  CA        41.1080    9.7710    3.6810 C.3   292  VAL292      0.1595
     78  C         42.0270    8.5630    3.9030 C.2   292  VAL292      0.2287
     79  O         41.5480    7.4370    4.0580 O.2   292  VAL292     -0.2864
     80  CB        41.0360   10.1600    2.1960 C.3   292  VAL292      0.0276
     81  CG1       40.6880    8.9620    1.3480 C.3   292  VAL292      0.0022
     82  CG2       39.9950   11.3010    2.0200 C.3   292  VAL292      0.0022
     83  N         41.3740    7.1090    7.2390 N.3   295  HIS295     -0.1226
     84  CA        40.1210    6.3260    7.1600 C.3   295  HIS295      0.1752
     85  C         40.4220    4.9640    6.5570 C.2   295  HIS295      0.2595
     86  O         40.0160    3.9090    7.1290 O.2   295  HIS295     -0.2718
     87  CB        39.0710    7.0770    6.3160 C.3   295  HIS295      0.0759
     88  CG        37.7310    6.3840    6.2690 C.ar  295  HIS295      0.0818
     89  ND1       36.7080    6.6920    7.1280 N.ar  295  HIS295     -0.2268
     90  CD2       37.2860    5.3570    5.5080 C.ar  295  HIS295      0.1154
     91  CE1       35.6680    5.8970    6.8760 C.ar  295  HIS295      0.1986
     92  NE2       35.9880    5.0950    5.8770 N.ar  295  HIS295     -0.2212
     93  N         41.1190    4.9470    5.3920 N.am  296  GLU296     -0.1979
     94  CA        41.4210    3.6460    4.8090 C.3   296  GLU296      0.1602
     95  C         42.2660    2.7500    5.6910 C.2   296  GLU296      0.2287
     96  O         42.0210    1.5430    5.7960 O.2   296  GLU296     -0.2864
     97  CB        42.0030    3.7940    3.3980 C.3   296  GLU296      0.0415
     98  CG        41.0370    4.5970    2.5200 C.3   296  GLU296      0.1163
     99  CD        39.6480    3.9800    2.4280 C.2   296  GLU296      0.3649
    100  OE1       39.5200    2.7650    2.5260 O.co2 296  GLU296     -0.2457
    101  OE2       38.6420    4.6780    2.2210 O.co2 296  GLU296     -0.2457
    102  N         40.1970    1.0100    8.3790 N.3   299  HIS299     -0.1241
    103  CA        39.4390   -0.1390    7.9080 C.3   299  HIS299      0.1621
    104  C         40.1810   -1.4460    8.0070 C.2   299  HIS299      0.2264
    105  O         39.5610   -2.4700    7.8880 O.2   299  HIS299     -0.2867
    106  CB        39.0380    0.0540    6.4060 C.3   299  HIS299      0.0745
    107  CG        37.7180    0.7470    6.2080 C.ar  299  HIS299      0.0817
    108  ND1       36.5700    0.3550    6.8730 N.ar  299  HIS299     -0.2268
    109  CD2       37.3390    1.7380    5.3540 C.ar  299  HIS299      0.1154
    110  CE1       35.5490    1.1040    6.4790 C.ar  299  HIS299      0.1986
    111  NE2       35.9810    1.9320    5.5300 N.ar  299  HIS299     -0.2212
    112  N         24.7000   -6.1020    4.7370 N.3   311  TRP311     -0.1241
    113  CA        24.7780   -4.6900    4.4660 C.3   311  TRP311      0.1605
    114  C         23.8290   -3.8590    5.3360 C.2   311  TRP311      0.2264
    115  O         23.9420   -2.6370    5.3700 O.2   311  TRP311     -0.2867
    116  CB        24.5640   -4.4570    2.9830 C.3   311  TRP311      0.0550
    117  CG        25.7140   -5.0780    2.2210 C.ar  311  TRP311      0.0003
    118  CD1       25.6690   -6.1600    1.3340 C.ar  311  TRP311      0.0946
    119  CD2       27.0930   -4.7410    2.3790 C.ar  311  TRP311      0.0152
    120  NE1       26.9510   -6.4690    0.9360 N.ar  311  TRP311     -0.2442
    121  CE2       27.8410   -5.6320    1.5750 C.ar  311  TRP311      0.0810
    122  CE3       27.7710   -3.7720    3.1390 C.ar  311  TRP311      0.0012
    123  CZ2       29.2140   -5.5550    1.4660 C.ar  311  TRP311      0.0191
    124  CZ3       29.1610   -3.7270    3.0700 C.ar  311  TRP311      0.0001
    125  CH2       29.8680   -4.6030    2.2010 C.ar  311  TRP311      0.0015
    126  N         25.8810   -2.1380    7.8450 N.3   314  PHE314     -0.1241
    127  CA        26.9990   -1.3340    7.2680 C.3   314  PHE314      0.1605
    128  C         27.5740   -0.2980    8.2150 C.2   314  PHE314      0.2264
    129  O         28.7620   -0.0660    8.2060 O.2   314  PHE314     -0.2867
    130  CB        26.4930   -0.6770    5.9550 C.3   314  PHE314      0.0534
    131  CG        27.5240    0.1300    5.2220 C.ar  314  PHE314     -0.0203
    132  CD1       28.7260   -0.4450    4.8140 C.ar  314  PHE314     -0.0042
    133  CD2       27.2330    1.4520    4.8370 C.ar  314  PHE314     -0.0042
    134  CE1       29.6530    0.3190    4.0600 C.ar  314  PHE314     -0.0003
    135  CE2       28.1630    2.2160    4.1380 C.ar  314  PHE314     -0.0003
    136  CZ        29.3530    1.6640    3.7420 C.ar  314  PHE314     -0.0000
    137  N         31.4640    1.4820    9.0090 N.3   318  GLU318     -0.1245
    138  CA        31.8060    2.8860    8.7760 C.3   318  GLU318      0.1567
    139  C         31.8940    3.7460   10.0150 C.2   318  GLU318      0.2260
    140  O         32.8160    4.5400   10.1280 O.2   318  GLU318     -0.2867
    141  CB        30.9060    3.5160    7.6890 C.3   318  GLU318      0.0388
    142  CG        31.0300    2.6820    6.3650 C.3   318  GLU318      0.1160
    143  CD        32.4520    2.7080    5.7570 C.2   318  GLU318      0.3649
    144  OE1       33.2970    3.5420    6.1350 O.co2 318  GLU318     -0.2457
    145  OE2       32.7300    1.8720    4.8740 O.co2 318  GLU318     -0.2457
    146  N         35.2540    5.7380   11.1140 N.3   322  VAL322     -0.1245
    147  CA        35.2680    7.2010   11.2850 C.3   322  VAL322      0.1561
    148  C         35.8040    7.5380   12.6640 C.2   322  VAL322      0.2260
    149  O         36.6220    8.4620   12.8390 O.2   322  VAL322     -0.2867
    150  CB        33.8380    7.8410   11.0570 C.3   322  VAL322      0.0252
    151  CG1       33.9090    9.3110   11.3550 C.3   322  VAL322      0.0019
    152  CG2       33.4780    7.7370    9.5240 C.3   322  VAL322      0.0019
    153  N         39.5550    6.8700   12.5440 N.3   325  GLU325     -0.1231
    154  CA        40.0800    7.9070   11.6690 C.3   325  GLU325      0.1699
    155  C         40.2510    9.2110   12.4630 C.2   325  GLU325      0.2592
    156  O         41.3190    9.8570   12.4390 O.2   325  GLU325     -0.2718
    157  CB        39.0680    8.1140   10.5130 C.3   325  GLU325      0.0402
    158  CG        39.3060    9.3140    9.5860 C.3   325  GLU325      0.1161
    159  CD        38.0290    9.8270    8.8730 C.2   325  GLU325      0.3649
    160  OE1       36.9480    9.1120    8.7180 O.co2 325  GLU325     -0.2457
    161  OE2       38.0960   11.0190    8.4900 O.co2 325  GLU325     -0.2457
    162  N         39.1980    9.6370   13.1520 N.am  326  ARG326     -0.1980
    163  CA        39.2590   10.9230   13.9100 C.3   326  ARG326      0.1597
    164  C         40.2340   10.8870   15.0930 C.2   326  ARG326      0.2287
    165  O         40.8420   11.9040   15.4030 O.2   326  ARG326     -0.2864
    166  CB        37.8680   11.4260   14.3000 C.3   326  ARG326      0.0334
    167  CG        37.1290   11.8110   13.0300 C.3   326  ARG326      0.0492
    168  CD        35.7440   12.3390   13.2480 C.3   326  ARG326      0.2205
    169  NE        35.2630   12.7700   11.9340 N.pl3 326  ARG326     -0.0865
    170  CZ        33.9890   12.7640   11.5570 C.cat 326  ARG326      0.5346
    171  NH1       33.0320   12.3710   12.3780 N.pl3 326  ARG326      0.1354
    172  NH2       33.6750   13.0990   10.2940 N.pl3 326  ARG326      0.1354
    173  N         22.2060   -1.3920   -2.8230 N.3   374  PRO374     -0.2102
    174  CA        23.0000   -0.6610   -1.8340 C.3   374  PRO374      0.1504
    175  C         23.5740    0.6700   -2.3810 C.2   374  PRO374      0.2575
    176  O         23.7990    1.5990   -1.6010 O.2   374  PRO374     -0.2718
    177  CB        24.1290   -1.6760   -1.5020 C.3   374  PRO374      0.0282
    178  CG        23.4720   -2.9980   -1.6480 C.3   374  PRO374      0.0208
    179  CD        22.6560   -2.7970   -2.9460 C.3   374  PRO374      0.0893
    180  N         23.8190    0.7460   -3.6990 N.am  375  ASP375     -0.1974
    181  CA        24.4280    1.9500   -4.3170 C.3   375  ASP375      0.1708
    182  C         23.4820    3.1510   -4.2400 C.2   375  ASP375      0.2293
    183  O         23.9020    4.2910   -3.9560 O.2   375  ASP375     -0.2864
    184  CB        24.8360    1.7010   -5.7680 C.3   375  ASP375      0.1436
    185  CG        26.1640    0.9190   -5.8890 C.2   375  ASP375      0.3671
    186  OD1       26.3040    0.1710   -6.8850 O.co2 375  ASP375     -0.2456
    187  OD2       27.0870    1.0830   -5.0250 O.co2 375  ASP375     -0.2456
    188  N         23.3290    4.3180   -0.3720 N.3   378  TYR378     -0.1227
    189  CA        24.6200    4.7900    0.1470 C.3   378  TYR378      0.1736
    190  C         24.5900    6.3000    0.5030 C.2   378  TYR378      0.2596
    191  O         24.2220    7.1200   -0.3290 O.2   378  TYR378     -0.2718
    192  CB        25.7160    4.5070   -0.8970 C.3   378  TYR378      0.0548
    193  CG        27.1350    4.9330   -0.4390 C.ar  378  TYR378     -0.0200
    194  CD1       27.7800    4.2460    0.5580 C.ar  378  TYR378     -0.0009
    195  CD2       27.7880    6.0020   -1.0240 C.ar  378  TYR378     -0.0009
    196  CE1       29.0740    4.6030    0.9770 C.ar  378  TYR378      0.0417
    197  CE2       29.0680    6.3790   -0.6180 C.ar  378  TYR378      0.0417
    198  CZ        29.7030    5.6560    0.3840 C.ar  378  TYR378      0.1957
    199  OH        30.9700    6.0050    0.8340 O.3   378  TYR378     -0.2866
    200  N         24.9860    6.6520    1.7260 N.am  379  SER379     -0.1938
    201  CA        25.0120    8.0600    2.1520 C.3   379  SER379      0.2055
    202  C         25.9330    8.2600    3.3490 C.2   379  SER379      0.2643
    203  O         26.4270    7.2630    3.8960 O.2   379  SER379     -0.2714
    204  CB        23.6100    8.4920    2.5810 C.3   379  SER379      0.2130
    205  OG        23.3430    8.0820    3.9290 O.3   379  SER379     -0.2179
    206  N         26.0690    9.5130    3.8060 N.am  380  SER380     -0.1949
    207  CA        26.8070    9.8450    5.0700 C.3   380  SER380      0.1924
    208  C         26.1800    9.3420    6.3280 C.2   380  SER380      0.2314
    209  O         26.7940    9.4070    7.3790 O.2   380  SER380     -0.2863
    210  CB        26.8440   11.3540    5.2610 C.3   380  SER380      0.2116
    211  OG        27.5640   11.9100    4.1860 O.3   380  SER380     -0.2180
    212  N         28.0230    6.5970    8.3360 N.3   383  TYR383     -0.1227
    213  CA        29.2620    7.2290    8.7800 C.3   383  TYR383      0.1736
    214  C         29.0330    8.1390    9.9870 C.2   383  TYR383      0.2595
    215  O         29.6920    7.9780   11.0200 O.2   383  TYR383     -0.2718
    216  CB        29.8980    8.0530    7.6670 C.3   383  TYR383      0.0548
    217  CG        30.3370    7.2380    6.5000 C.ar  383  TYR383     -0.0200
    218  CD1       29.4030    6.7320    5.5800 C.ar  383  TYR383     -0.0009
    219  CD2       31.6760    6.9320    6.3200 C.ar  383  TYR383     -0.0009
    220  CE1       29.7950    5.9560    4.5260 C.ar  383  TYR383      0.0417
    221  CE2       32.0970    6.1840    5.1970 C.ar  383  TYR383      0.0417
    222  CZ        31.1460    5.6660    4.3230 C.ar  383  TYR383      0.1957
    223  OH        31.5330    4.9150    3.1810 O.3   383  TYR383     -0.2866
    224  N         28.1120    9.0930    9.8440 N.am  384  GLU384     -0.1979
    225  CA        28.0500   10.2180   10.8410 C.3   384  GLU384      0.1602
    226  C         27.0730    9.9680   11.9930 C.2   384  GLU384      0.2287
    227  O         27.3200   10.3870   13.1630 O.2   384  GLU384     -0.2864
    228  CB        27.7910   11.5550   10.1330 C.3   384  GLU384      0.0415
    229  CG        28.9020   11.9650    9.1390 C.3   384  GLU384      0.1163
    230  CD        30.2540   12.1040    9.8160 C.2   384  GLU384      0.3649
    231  OE1       30.3090   12.1110   11.0950 O.co2 384  GLU384     -0.2457
    232  OE2       31.2580   12.1890    9.0800 O.co2 384  GLU384     -0.2457
    233  N         34.9080   11.4010   -8.9520 N.3   563  ARG563     -0.1245
    234  CA        34.6340   11.0730   -7.5400 C.3   563  ARG563      0.1563
    235  C         33.1820   11.4270   -7.2520 C.2   563  ARG563      0.2260
    236  O         32.7970   12.5670   -7.4300 O.2   563  ARG563     -0.2867
    237  CB        35.6260   11.7940   -6.6120 C.3   563  ARG563      0.0307
    238  CG        35.4290   11.4940   -5.1170 C.3   563  ARG563      0.0489
    239  CD        36.4300   12.3380   -4.3710 C.3   563  ARG563      0.2205
    240  NE        36.4310   12.0790   -2.9220 N.pl3 563  ARG563     -0.0865
    241  CZ        37.2970   12.6720   -2.0930 C.cat 563  ARG563      0.5346
    242  NH1       38.2600   13.5040   -2.5460 N.pl3 563  ARG563      0.1354
    243  NH2       37.2130   12.3900   -0.8080 N.pl3 563  ARG563      0.1354
    244  N         31.2990   11.9450   -4.7630 N.3   565  LYS565     -0.1245
    245  CA        31.1150   13.0130   -3.7550 C.3   565  LYS565      0.1561
    246  C         31.0720   14.3970   -4.4260 C.2   565  LYS565      0.2260
    247  O         30.4060   15.2970   -3.9430 O.2   565  LYS565     -0.2867
    248  CB        32.3680   13.0130   -2.8480 C.3   565  LYS565      0.0271
    249  CG        32.4070   14.1140   -1.7930 C.3   565  LYS565      0.0035
    250  CD        33.7670   14.0760   -1.0160 C.3   565  LYS565      0.0206
    251  CE        33.6020   14.9010    0.2940 C.3   565  LYS565      0.1093
    252  NZ        34.8430   14.8090    1.1840 N.3   565  LYS565     -0.1314
@<TRIPOS>BOND
     1   233   234    1
     2    30    24    1
     3    30    29    1
     4     1     2    1
     5    24    25    1
     6    29    28    1
     7    28    25    1
     8    25    26    1
     9     5     2    1
    10     5     6    1
    11   234   235    1
    12   234   237    1
    13     2     3    1
    14   236   235    2
    15     4     3    2
    16   186   185   ar
    17   237   238    1
    18     6     7    1
    19    26    27    2
    20    26    31   am
    21   185   184    1
    22   185   187   ar
    23   184   181    1
    24    31    32    1
    25   238   239    1
    26     7     9   am
    27     7     8    2
    28   244   245    1
    29    39    37   ar
    30    39    41   ar
    31    37    36   ar
    32    34    33    2
    33   246   247    2
    34   246   245    1
    35   239   240    1
    36   181   182    1
    37   181   180    1
    38   182   183    2
    39    32    33    1
    40    32    35    1
    41    42    41    1
    42    13    12    2
    43    41    40   ar
    44    33    43   am
    45    10    11    1
    46   245   248    1
    47   180   175   am
    48    36    35    1
    49    36    38   ar
    50    12    19   am
    51    12    11    1
    52    40    38   ar
    53   179   173    1
    54   179   178    1
    55   240   241    2
    56    19    20    1
    57   248   249    1
    58   173   174    1
    59    11    14    1
    60    43    44    1
    61    21    22    2
    62    21    20    1
    63   242   241    1
    64   175   174    1
    65   175   176    2
    66    55    56    1
    67    55    52    1
    68    46    45    2
    69    44    45    1
    70   241   243    1
    71    56    57    1
    72    20    23    1
    73    45    47   am
    74   174   177    1
    75   249   250    1
    76   178   177    1
    77    14    15    1
    78    47    48    1
    79    57    58    1
    80    51    49   am
    81    51    52    1
    82   195   197   ar
    83   195   193   ar
    84    48    49    1
    85   250   251    1
    86    49    50    2
    87    52    53    1
    88   192   193    1
    89   192   189    1
    90    54    53    2
    91   197   198   ar
    92   193   194   ar
    93   188   189    1
    94   191   190    2
    95    15    16    1
    96    53    59   am
    97   189   190    1
    98   251   252    1
    99   198   199    1
   100   198   196   ar
   101   190   200   am
   102   194   196   ar
   103    17    16    2
   104    59    60    1
   105    16    18   am
   106   120   118   ar
   107   120   121   ar
   108   118   117   ar
   109    81    80    1
   110    61    60    1
   111    61    62    2
   112   123   121   ar
   113   123   125   ar
   114   121   119   ar
   115   200   201    1
   116    60    63    1
   117    82    80    1
   118   201   204    1
   119   201   202    1
   120    80    77    1
   121   125   124   ar
   122   117   119   ar
   123   117   116    1
   124   101    99   ar
   125    66    65   ar
   126   119   122   ar
   127    99    98    1
   128    99   100   ar
   129    98    97    1
   130   204   205    1
   131   116   113    1
   132   124   122   ar
   133    65    64    1
   134    65    67   ar
   135   223   222    1
   136    63    64    1
   137   202   206   am
   138   202   203    2
   139    97    94    1
   140    77    78    1
   141    77    76    1
   142   136   134   ar
   143   136   135   ar
   144   206   207    1
   145    78    79    2
   146   134   132   ar
   147   135   133   ar
   148   211   210    1
   149   222   220   ar
   150   222   221   ar
   151   113   112    1
   152   113   114    1
   153    76    70   am
   154   220   218   ar
   155    94    93    1
   156    94    95    1
   157   132   131   ar
   158   133   131   ar
   159   145   143   ar
   160   207   210    1
   161   207   208    1
   162    74    73    2
   163   221   219   ar
   164   131   130    1
   165   114   115    2
   166   109   111   ar
   167   109   107   ar
   168    93    85   am
   169    90    92   ar
   170    90    88   ar
   171   111   110   ar
   172   218   217   ar
   173    95    96    2
   174   143   144   ar
   175   143   142    1
   176    68    69    1
   177    70    71    2
   178    70    69    1
   179    92    91   ar
   180   130   127    1
   181    75    73   am
   182    73    72    1
   183   107   106    1
   184   107   108   ar
   185    88    87    1
   186    88    89   ar
   187    87    84    1
   188   219   217   ar
   189   208   209    2
   190   142   141    1
   191   106   103    1
   192   110   108   ar
   193   217   216    1
   194    85    86    2
   195    85    84    1
   196    69    72    1
   197    91    89   ar
   198    84    83    1
   199   127   126    1
   200   127   128    1
   201   216   213    1
   202   141   138    1
   203   105   104    2
   204   103   104    1
   205   103   102    1
   206   129   128    2
   207   212   213    1
   208   161   159   ar
   209   160   159   ar
   210   138   137    1
   211   138   139    1
   212   213   214    1
   213   159   158    1
   214   232   230   ar
   215   229   230    1
   216   229   228    1
   217   152   150    1
   218   158   157    1
   219   230   231   ar
   220   224   214   am
   221   224   225    1
   222   214   215    2
   223   139   140    2
   224   228   225    1
   225   172   170    1
   226   157   154    1
   227   225   226    1
   228   150   147    1
   229   150   151    1
   230   146   147    1
   231   147   148    1
   232   170   169    2
   233   170   171    1
   234   154   155    1
   235   154   153    1
   236   169   168    1
   237   226   227    2
   238   156   155    2
   239   155   162   am
   240   148   149    2
   241   167   168    1
   242   167   166    1
   243   162   163    1
   244   163   166    1
   245   163   164    1
   246   164   165    2
