@<TRIPOS>MOLECULE
tmp/2r5cB00.pdb
 175 166 0 0 0
SMALL
GASTEIGER

@<TRIPOS>ATOM
      1  N         10.8670  -12.6080   23.0910 N.3    17  TRP17      -0.1241
      2  CA        11.5350  -11.9630   24.2860 C.3    17  TRP17       0.1605
      3  C         10.6440  -10.9760   25.0360 C.2    17  TRP17       0.2264
      4  O         10.4850  -11.0730   26.2770 O.2    17  TRP17      -0.2867
      5  CB        12.8920  -11.3720   23.9480 C.3    17  TRP17       0.0550
      6  CG        13.6830  -12.2880   23.0460 C.ar   17  TRP17       0.0003
      7  CD1       14.0400  -12.0590   21.7600 C.ar   17  TRP17       0.0946
      8  CD2       14.1220  -13.6490   23.3550 C.ar   17  TRP17       0.0152
      9  NE1       14.7460  -13.1510   21.2720 N.ar   17  TRP17      -0.2442
     10  CE2       14.7850  -14.1420   22.2140 C.ar   17  TRP17       0.0810
     11  CE3       14.0120  -14.4820   24.4970 C.ar   17  TRP17       0.0012
     12  CZ2       15.3170  -15.4690   22.1450 C.ar   17  TRP17       0.0191
     13  CZ3       14.5690  -15.7610   24.4540 C.ar   17  TRP17       0.0001
     14  CH2       15.2310  -16.2320   23.2880 C.ar   17  TRP17       0.0015
     15  N         15.4460  -17.2250   28.6930 N.3    34  GLN34      -0.1231
     16  CA        16.4270  -16.3850   28.0130 C.3    34  GLN34       0.1698
     17  C         17.8640  -16.7100   28.5180 C.2    34  GLN34       0.2589
     18  O         18.0540  -17.1000   29.6860 O.2    34  GLN34      -0.2718
     19  CB        16.0540  -14.8910   28.2090 C.3    34  GLN34       0.0381
     20  CG        17.0390  -13.8850   27.5290 C.3    34  GLN34       0.0905
     21  CD        16.7240  -12.4590   27.9850 C.2    34  GLN34       0.2608
     22  OE1       16.4010  -12.2200   29.1530 O.2    34  GLN34      -0.2717
     23  NE2       16.7940  -11.5270   27.0680 N.am   34  GLN34      -0.0878
     24  N         18.8580  -16.6860   27.6160 N.am   35  GLY35      -0.2014
     25  CA        20.2200  -17.0660   28.0290 C.3    35  GLY35       0.1506
     26  C         21.0250  -16.0450   28.8090 C.3    35  GLY35       0.2054
     27  O         21.3900  -14.9200   28.2710 O.3    35  GLY35      -0.2184
     28  N         25.5080   -4.4280   21.8890 N.3    99  GLY99      -0.1210
     29  CA        25.3240   -5.8810   21.7360 C.3    99  GLY99       0.1956
     30  C         25.6710   -6.3950   20.3520 C.2    99  GLY99       0.2612
     31  O         25.9920   -5.6050   19.4820 O.2    99  GLY99      -0.2717
     32  N         25.6050   -7.7090   20.1620 N.am  100  ALA100     -0.1965
     33  CA        25.5700   -8.2890   18.8250 C.3   100  ALA100      0.1728
     34  C         24.2530   -7.9760   18.1230 C.2   100  ALA100      0.2616
     35  O         24.1020   -8.2200   16.9260 O.2   100  ALA100     -0.2715
     36  CB        25.7940   -9.7910   18.8930 C.3   100  ALA100      0.0334
     37  N         23.3010   -7.4340   18.8770 N.am  101  TYR101     -0.1974
     38  CA        21.9920   -7.0970   18.3320 C.3   101  TYR101      0.1639
     39  C         22.0880   -5.9420   17.3410 C.2   101  TYR101      0.2290
     40  O         21.4850   -5.9800   16.2680 O.2   101  TYR101     -0.2864
     41  CB        21.0180   -6.7430   19.4580 C.3   101  TYR101      0.0560
     42  CG        19.7510   -7.5680   19.4540 C.ar  101  TYR101     -0.0198
     43  CD1       19.6220   -8.6820   20.2730 C.ar  101  TYR101     -0.0009
     44  CD2       18.6840   -7.2340   18.6300 C.ar  101  TYR101     -0.0009
     45  CE1       18.4660   -9.4390   20.2720 C.ar  101  TYR101      0.0417
     46  CE2       17.5240   -7.9850   18.6230 C.ar  101  TYR101      0.0417
     47  CZ        17.4200   -9.0860   19.4460 C.ar  101  TYR101      0.1957
     48  OH        16.2680   -9.8380   19.4430 O.3   101  TYR101     -0.2866
     49  N         24.2620   -6.9340   14.3180 N.3   104  LEU104     -0.1245
     50  CA        23.4910   -7.5540   13.2550 C.3   104  LEU104      0.1561
     51  C         22.6610   -6.5170   12.5020 C.2   104  LEU104      0.2260
     52  O         22.4770   -6.6420   11.3140 O.2   104  LEU104     -0.2867
     53  CB        22.6260   -8.6870   13.7950 C.3   104  LEU104      0.0270
     54  CG        23.3640   -9.9580   14.2840 C.3   104  LEU104      0.0019
     55  CD1       22.6440  -10.6600   15.3980 C.3   104  LEU104      0.0001
     56  CD2       23.6010  -10.8750   13.1510 C.3   104  LEU104      0.0001
     57  N         18.3830  -17.5400   14.8820 N.3   125  PHE125     -0.1241
     58  CA        18.1840  -16.5410   15.9160 C.3   125  PHE125      0.1605
     59  C         17.0900  -15.5330   15.4510 C.2   125  PHE125      0.2264
     60  O         17.2270  -14.8180   14.4200 O.2   125  PHE125     -0.2867
     61  CB        19.5530  -15.8040   16.3360 C.3   125  PHE125      0.0534
     62  CG        19.3550  -14.7730   17.4490 C.ar  125  PHE125     -0.0203
     63  CD1       19.5050  -13.4020   17.2300 C.ar  125  PHE125     -0.0042
     64  CD2       18.8910  -15.1740   18.6710 C.ar  125  PHE125     -0.0042
     65  CE1       19.2660  -12.4740   18.2460 C.ar  125  PHE125     -0.0003
     66  CE2       18.6430  -14.2350   19.7200 C.ar  125  PHE125     -0.0003
     67  CZ        18.8490  -12.9070   19.4960 C.ar  125  PHE125     -0.0000
     68  N         25.2800  -18.8270   11.8190 N.3   179  ASN179     -0.1240
     69  CA        25.4610  -18.6860   13.2650 C.3   179  ASN179      0.1653
     70  C         26.0890  -19.9460   13.8230 C.2   179  ASN179      0.2266
     71  O         25.4740  -21.0040   13.8310 O.2   179  ASN179     -0.2867
     72  CB        24.1150  -18.3800   13.8940 C.3   179  ASN179      0.1155
     73  CG        24.1230  -18.3780   15.4330 C.2   179  ASN179      0.2627
     74  OD1       23.2200  -18.9430   16.0760 O.2   179  ASN179     -0.2716
     75  ND2       25.1600  -17.8080   16.0150 N.am  179  ASN179     -0.0877
     76  N         22.3890  -21.1720   17.7420 N.3   183  ASN183     -0.1240
     77  CA        21.2890  -21.0180   18.6430 C.3   183  ASN183      0.1653
     78  C         20.0270  -21.2980   17.8100 C.2   183  ASN183      0.2266
     79  O         19.7940  -20.6170   16.8590 O.2   183  ASN183     -0.2867
     80  CB        21.2580  -19.5430   19.0720 C.3   183  ASN183      0.1155
     81  CG        20.1930  -19.2590   20.1400 C.2   183  ASN183      0.2627
     82  OD1       19.6250  -20.1750   20.7090 O.2   183  ASN183     -0.2716
     83  ND2       20.0320  -17.9640   20.4800 N.am  183  ASN183     -0.0877
     84  N         27.7020  -14.8940   12.6110 N.3   211  ASP211     -0.1239
     85  CA        27.3450  -14.5430   13.9820 C.3   211  ASP211      0.1674
     86  C         28.0000  -15.5620   14.9440 C.2   211  ASP211      0.2266
     87  O         27.5380  -16.6980   15.1080 O.2   211  ASP211     -0.2867
     88  CB        25.8310  -14.5690   14.1160 C.3   211  ASP211      0.1410
     89  CG        25.3450  -14.1570   15.5100 C.2   211  ASP211      0.3668
     90  OD1       26.2380  -13.9920   16.4370 O.co2 211  ASP211     -0.2456
     91  OD2       24.0850  -13.9730   15.7250 O.co2 211  ASP211     -0.2456
     92  N         28.8540  -15.1250   18.4060 N.3   213  VAL213     -0.1231
     93  CA        28.8290  -14.7570   19.8280 C.3   213  VAL213      0.1692
     94  C         29.2790  -15.8480   20.8610 C.2   213  VAL213      0.2592
     95  O         29.8900  -15.5250   21.9040 O.2   213  VAL213     -0.2718
     96  CB        27.4260  -14.1870   20.1930 C.3   213  VAL213      0.0266
     97  CG1       27.1050  -12.8040   19.4440 C.3   213  VAL213      0.0020
     98  CG2       26.3380  -15.2090   19.9960 C.3   213  VAL213      0.0020
     99  N         29.0060  -17.1160   20.5370 N.am  214  TYR214     -0.1976
    100  CA        29.3480  -18.2630   21.3860 C.3   214  TYR214      0.1639
    101  C         30.6580  -18.9130   21.0280 C.2   214  TYR214      0.2290
    102  O         30.9460  -20.0330   21.5060 O.2   214  TYR214     -0.2864
    103  CB        28.2050  -19.3120   21.4410 C.3   214  TYR214      0.0560
    104  CG        26.8670  -18.7080   21.7830 C.ar  214  TYR214     -0.0198
    105  CD1       26.6530  -18.1190   23.0400 C.ar  214  TYR214     -0.0009
    106  CD2       25.7980  -18.7850   20.9120 C.ar  214  TYR214     -0.0009
    107  CE1       25.3750  -17.5830   23.4170 C.ar  214  TYR214      0.0417
    108  CE2       24.5600  -18.2640   21.2390 C.ar  214  TYR214      0.0417
    109  CZ        24.3560  -17.6070   22.5230 C.ar  214  TYR214      0.1957
    110  OH        23.1560  -17.0680   22.8660 O.3   214  TYR214     -0.2866
    111  N         30.2100  -10.6710   20.8130 N.3   242  SER242     -0.1217
    112  CA        29.4840  -10.0040   21.8760 C.3   242  SER242      0.1889
    113  C         30.1520  -10.1390   23.2690 C.2   242  SER242      0.2288
    114  O         30.5890  -11.2500   23.6810 O.2   242  SER242     -0.2866
    115  CB        28.1360  -10.6510   21.9710 C.3   242  SER242      0.2089
    116  OG        27.4210  -10.0860   23.0710 O.3   242  SER242     -0.2183
    117  N         28.6540   -9.5510   26.0940 N.3   244  GLY244     -0.1210
    118  CA        27.6480  -10.2220   26.9030 C.3   244  GLY244      0.1956
    119  C         27.8590  -11.7360   27.0060 C.2   244  GLY244      0.2611
    120  O         27.5150  -12.3590   28.0000 O.2   244  GLY244     -0.2717
    121  N         28.4390  -12.3350   25.9760 N.am  245  LYS245     -0.1979
    122  CA        28.5630  -13.7690   25.8530 C.3   245  LYS245      0.1596
    123  C         30.0150  -14.1770   26.1610 C.2   245  LYS245      0.2287
    124  O         30.2190  -15.1500   26.8670 O.2   245  LYS245     -0.2864
    125  CB        28.1080  -14.3060   24.4710 C.3   245  LYS245      0.0298
    126  CG        26.6680  -13.8800   24.0860 C.3   245  LYS245      0.0038
    127  CD        25.6740  -14.3690   25.1420 C.3   245  LYS245      0.0206
    128  CE        24.2830  -14.1140   24.6210 C.3   245  LYS245      0.1093
    129  NZ        24.4070  -12.6630   24.3710 N.3   245  LYS245     -0.1314
    130  N         25.4470  -10.1940   30.1590 N.3   250  THR250     -0.1218
    131  CA        24.4910   -9.9390   29.1060 C.3   250  THR250      0.1862
    132  C         23.8710   -8.5160   29.2590 C.2   250  THR250      0.2287
    133  O         23.5160   -7.9080   28.2840 O.2   250  THR250     -0.2866
    134  CB        23.4290  -11.0250   29.0280 C.3   250  THR250      0.1770
    135  OG1       22.7700  -11.1500   30.2980 O.3   250  THR250     -0.2211
    136  CG2       24.1730  -12.4660   28.7060 C.3   250  THR250      0.0375
    137  N         25.3690   -5.2560   27.1480 N.3   253  LYS253     -0.1231
    138  CA        24.9410   -4.8800   25.7510 C.3   253  LYS253      0.1693
    139  C         26.0950   -4.1450   24.9600 C.2   253  LYS253      0.2591
    140  O         25.9740   -3.0520   24.4280 O.2   253  LYS253     -0.2718
    141  CB        23.5450   -4.0950   25.8310 C.3   253  LYS253      0.0285
    142  CG        22.4040   -5.1040   26.1370 C.3   253  LYS253      0.0035
    143  CD        22.1700   -6.2050   25.0600 C.3   253  LYS253      0.0206
    144  CE        21.7270   -5.5600   23.7870 C.3   253  LYS253      0.1093
    145  NZ        21.1670   -6.5100   22.8710 N.3   253  LYS253     -0.1314
    146  N         27.2040   -4.8740   24.8020 N.am  254  ILE254     -0.1980
    147  CA        28.2830   -4.4110   24.0000 C.3   254  ILE254      0.1595
    148  C         28.7340   -5.5630   23.0490 C.2   254  ILE254      0.2287
    149  O         29.1260   -6.6260   23.4800 O.2   254  ILE254     -0.2864
    150  CB        29.5070   -3.8250   24.8100 C.3   254  ILE254      0.0276
    151  CG1       29.1560   -2.5310   25.5890 C.3   254  ILE254      0.0022
    152  CG2       30.7200   -3.5220   23.8850 C.3   254  ILE254      0.0022
    153  CD1       28.7230   -1.3500   24.6510 C.3   254  ILE254      0.0001
    154  N         22.5210  -23.7330   25.2900 N.3   337  PHE337     -0.1241
    155  CA        21.1180  -24.0110   25.0510 C.3   337  PHE337      0.1605
    156  C         21.0000  -25.4730   24.6010 C.2   337  PHE337      0.2264
    157  O         21.9290  -26.0160   24.0150 O.2   337  PHE337     -0.2867
    158  CB        20.5860  -23.1080   23.9350 C.3   337  PHE337      0.0534
    159  CG        20.4240  -21.6960   24.3650 C.ar  337  PHE337     -0.0203
    160  CD1       19.5600  -21.4000   25.4060 C.ar  337  PHE337     -0.0042
    161  CD2       21.1340  -20.6730   23.7530 C.ar  337  PHE337     -0.0042
    162  CE1       19.4330  -20.1120   25.8090 C.ar  337  PHE337     -0.0003
    163  CE2       20.9830  -19.3600   24.1500 C.ar  337  PHE337     -0.0003
    164  CZ        20.1860  -19.1020   25.1660 C.ar  337  PHE337     -0.0000
    165  N         13.4690  -25.3480   24.0800 N.3   395  ARG395     -0.1245
    166  CA        14.8500  -24.9250   24.2830 C.3   395  ARG395      0.1563
    167  C         15.0750  -24.4500   25.7140 C.2   395  ARG395      0.2260
    168  O         14.4630  -23.4780   26.1590 O.2   395  ARG395     -0.2867
    169  CB        15.2210  -23.8160   23.2960 C.3   395  ARG395      0.0307
    170  CG        16.6850  -23.4100   23.3400 C.3   395  ARG395      0.0489
    171  CD        16.9490  -21.9900   22.8670 C.3   395  ARG395      0.2205
    172  NE        16.5780  -21.0000   23.8740 N.pl3 395  ARG395     -0.0865
    173  CZ        16.8270  -19.7020   23.7710 C.cat 395  ARG395      0.5346
    174  NH1       17.4500  -19.2280   22.7010 N.pl3 395  ARG395      0.1354
    175  NH2       16.4520  -18.8740   24.7360 N.pl3 395  ARG395      0.1354
@<TRIPOS>BOND
     1    52    51    2
     2    68    69    1
     3    51    50    1
     4    84    85    1
     5    56    54    1
     6    50    53    1
     7    50    49    1
     8    69    70    1
     9    69    72    1
    10    53    54    1
    11    70    71    2
    12    72    73    1
    13    85    88    1
    14    85    86    1
    15    88    89    1
    16    54    55    1
    17    60    59    2
    18    57    58    1
    19    86    87    2
    20    73    75   am
    21    73    74    2
    22    59    58    1
    23    89    91   ar
    24    89    90   ar
    25    58    61    1
    26    40    39    2
    27    61    62    1
    28    79    78    2
    29    35    34    2
    30    63    62   ar
    31    63    65   ar
    32    39    38    1
    33    62    64   ar
    34    76    77    1
    35    78    77    1
    36    34    33    1
    37    34    37   am
    38    65    67   ar
    39    38    37    1
    40    38    41    1
    41    92    93    1
    42    46    44   ar
    43    46    47   ar
    44    44    42   ar
    45    77    80    1
    46    64    66   ar
    47    33    36    1
    48    33    32    1
    49    80    81    1
    50    48    47    1
    51    97    96    1
    52    47    45   ar
    53    42    41    1
    54    42    43   ar
    55    31    30    2
    56    67    66   ar
    57    93    96    1
    58    93    94    1
    59    98    96    1
    60    81    83   am
    61    81    82    2
    62    32    30   am
    63    45    43   ar
    64    30    29    1
    65    99    94   am
    66    99   100    1
    67   111   112    1
    68    94    95    2
    69   106   108   ar
    70   106   104   ar
    71   101   100    1
    72   101   102    2
    73   108   109   ar
    74     9     7   ar
    75     9    10   ar
    76   100   103    1
    77   103   104    1
    78    29    28    1
    79     7     6   ar
    80   104   105   ar
    81   112   115    1
    82   112   113    1
    83   115   116    1
    84    12    10   ar
    85    12    14   ar
    86    10     8   ar
    87   109   110    1
    88   109   107   ar
    89   174   173    1
    90   171   170    1
    91   171   172    1
    92   145   144    1
    93   105   107   ar
    94     6     8   ar
    95     6     5    1
    96   148   149    2
    97   148   147    1
    98     1     2    1
    99   113   114    2
   100    14    13   ar
   101   169   170    1
   102   169   166    1
   103     8    11   ar
   104   161   163   ar
   105   161   159   ar
   106   173   172    2
   107   173   175    1
   108   144   143    1
   109   152   150    1
   110   158   159    1
   111   158   155    1
   112     5     2    1
   113   147   146    1
   114   147   150    1
   115   157   156    2
   116   165   166    1
   117   126   125    1
   118   126   127    1
   119   163   164   ar
   120   166   167    1
   121     2     3    1
   122   159   160   ar
   123   129   128    1
   124   140   139    2
   125    13    11   ar
   126   125   122    1
   127   156   155    1
   128   128   127    1
   129   153   151    1
   130   146   139   am
   131   150   151    1
   132   139   138    1
   133     3     4    2
   134   155   154    1
   135   143   142    1
   136   164   162   ar
   137   160   162   ar
   138   167   168    2
   139   138   141    1
   140   138   137    1
   141   141   142    1
   142   122   121    1
   143   122   123    1
   144   121   119   am
   145   117   118    1
   146   123   124    2
   147   118   119    1
   148   119   120    2
   149    23    21   am
   150    20    21    1
   151    20    19    1
   152    24    25    1
   153    24    17   am
   154    21    22    2
   155    16    19    1
   156    16    17    1
   157    16    15    1
   158    25    26    1
   159    27    26    1
   160   133   132    2
   161    17    18    2
   162   136   134    1
   163   134   131    1
   164   134   135    1
   165   131   132    1
   166   131   130    1
