@<TRIPOS>MOLECULE
tmp/2r5eA00.pdb
 175 166 0 0 0
SMALL
GASTEIGER

@<TRIPOS>ATOM
      1  N        -30.6080  -14.2580   13.6650 N.3    17  TRP17      -0.1241
      2  CA       -31.0470  -13.6660   14.9060 C.3    17  TRP17       0.1605
      3  C        -32.1560  -12.6490   14.6780 C.2    17  TRP17       0.2264
      4  O        -33.2090  -12.7870   15.2900 O.2    17  TRP17      -0.2867
      5  CB       -29.8520  -13.0960   15.6810 C.3    17  TRP17       0.0550
      6  CG       -28.8060  -14.1570   15.8550 C.ar   17  TRP17       0.0003
      7  CD1      -27.4920  -14.1040   15.4470 C.ar   17  TRP17       0.0946
      8  CD2      -28.9920  -15.4550   16.4450 C.ar   17  TRP17       0.0152
      9  NE1      -26.8490  -15.2730   15.7820 N.ar   17  TRP17      -0.2442
     10  CE2      -27.7420  -16.1200   16.3910 C.ar   17  TRP17       0.0810
     11  CE3      -30.0920  -16.1160   17.0330 C.ar   17  TRP17       0.0012
     12  CZ2      -27.5610  -17.4180   16.8910 C.ar   17  TRP17       0.0191
     13  CZ3      -29.9130  -17.4060   17.5260 C.ar   17  TRP17       0.0001
     14  CH2      -28.6570  -18.0470   17.4420 C.ar   17  TRP17       0.0015
     15  N        -32.3990  -18.8440   21.0340 N.3    34  GLN34      -0.1231
     16  CA       -31.3430  -17.9670   21.5340 C.3    34  GLN34       0.1698
     17  C        -30.9440  -18.3770   22.9750 C.2    34  GLN34       0.2592
     18  O        -31.7890  -18.7820   23.7590 O.2    34  GLN34      -0.2718
     19  CB       -31.8280  -16.5160   21.5070 C.3    34  GLN34       0.0381
     20  CG       -30.7360  -15.4540   21.6270 C.3    34  GLN34       0.0905
     21  CD       -31.3090  -14.0380   21.5580 C.2    34  GLN34       0.2608
     22  OE1      -32.4660  -13.7970   21.9450 O.2    34  GLN34      -0.2717
     23  NE2      -30.5000  -13.0940   21.0690 N.am   34  GLN34      -0.0878
     24  N        -29.6500  -18.3210   23.2800 N.am   35  GLY35      -0.1957
     25  CA       -29.1780  -18.7980   24.5610 C.3    35  GLY35       0.1869
     26  C        -29.3510  -17.7110   25.5860 C.2    35  GLY35       0.2309
     27  O        -28.7110  -16.6430   25.4800 O.2    35  GLY35      -0.2863
     28  N        -20.8550   -6.2020   24.5230 N.3    99  GLY99      -0.1210
     29  CA       -20.8630   -7.6580   24.3910 C.3    99  GLY99       0.1956
     30  C        -19.5670   -8.2100   23.8130 C.2    99  GLY99       0.2612
     31  O        -18.6890   -7.4570   23.3460 O.2    99  GLY99      -0.2717
     32  N        -19.4490   -9.5380   23.8350 N.am  100  ALA100     -0.1965
     33  CA       -18.4390  -10.2380   23.0280 C.3   100  ALA100      0.1728
     34  C        -18.6500   -9.8750   21.5460 C.2   100  ALA100      0.2616
     35  O        -17.7000   -9.8720   20.7880 O.2   100  ALA100     -0.2715
     36  CB       -18.5680  -11.7680   23.2260 C.3   100  ALA100      0.0334
     37  N        -19.8780   -9.4990   21.1420 N.am  101  TYR101     -0.1974
     38  CA       -20.1300   -9.1060   19.7360 C.3   101  TYR101      0.1639
     39  C        -19.2200   -8.0020   19.2660 C.2   101  TYR101      0.2290
     40  O        -18.5530   -8.1390   18.2580 O.2   101  TYR101     -0.2864
     41  CB       -21.5560   -8.5970   19.5040 C.3   101  TYR101      0.0560
     42  CG       -22.3650   -9.4430   18.5720 C.ar  101  TYR101     -0.0198
     43  CD1      -22.3360   -9.2750   17.1700 C.ar  101  TYR101     -0.0009
     44  CD2      -23.1460  -10.4370   19.1080 C.ar  101  TYR101     -0.0009
     45  CE1      -23.1480  -10.1610   16.3420 C.ar  101  TYR101      0.0417
     46  CE2      -23.8860  -11.2380   18.3750 C.ar  101  TYR101      0.0417
     47  CZ       -23.9020  -11.1410   17.0050 C.ar  101  TYR101      0.1957
     48  OH       -24.7580  -12.0810   16.4300 O.3   101  TYR101     -0.2866
     49  N        -15.5310   -8.9590   19.0680 N.3   104  LEU104     -0.1245
     50  CA       -15.2270   -9.6000   17.7980 C.3   104  LEU104      0.1561
     51  C        -15.2080   -8.6000   16.6390 C.2   104  LEU104      0.2260
     52  O        -14.3310   -8.6560   15.7590 O.2   104  LEU104     -0.2867
     53  CB       -16.2430  -10.6850   17.5490 C.3   104  LEU104      0.0270
     54  CG       -16.1580  -11.9100   18.4810 C.3   104  LEU104      0.0019
     55  CD1      -17.5380  -12.5590   18.4890 C.3   104  LEU104      0.0001
     56  CD2      -15.1200  -12.9230   17.9920 C.3   104  LEU104      0.0001
     57  N        -20.0650  -19.6920   15.1790 N.3   125  PHE125     -0.1241
     58  CA       -20.9570  -18.6460   15.6260 C.3   125  PHE125      0.1605
     59  C        -21.1690  -17.6710   14.4560 C.2   125  PHE125      0.2264
     60  O        -20.2170  -17.2480   13.7910 O.2   125  PHE125     -0.2867
     61  CB       -20.4070  -17.9340   16.8650 C.3   125  PHE125      0.0534
     62  CG       -21.3270  -16.8800   17.3780 C.ar  125  PHE125     -0.0203
     63  CD1      -20.9940  -15.5280   17.2850 C.ar  125  PHE125     -0.0042
     64  CD2      -22.5570  -17.2390   17.9110 C.ar  125  PHE125     -0.0042
     65  CE1      -21.8930  -14.5430   17.7440 C.ar  125  PHE125     -0.0003
     66  CE2      -23.4700  -16.2870   18.3610 C.ar  125  PHE125     -0.0003
     67  CZ       -23.1270  -14.9200   18.3020 C.ar  125  PHE125     -0.0000
     68  N        -13.3320  -20.9990   18.9730 N.3   179  ASN179     -0.1240
     69  CA       -14.4370  -20.7520   19.9060 C.3   179  ASN179      0.1653
     70  C        -14.4990  -21.9520   20.8100 C.2   179  ASN179      0.2266
     71  O        -14.8290  -23.0670   20.3570 O.2   179  ASN179     -0.2867
     72  CB       -15.7560  -20.5850   19.1320 C.3   179  ASN179      0.1155
     73  CG       -16.9560  -20.3580   20.0330 C.2   179  ASN179      0.2627
     74  OD1      -16.8560  -19.7730   21.1360 O.2   179  ASN179     -0.2716
     75  ND2      -18.1050  -20.8200   19.5890 N.am  179  ASN179     -0.0877
     76  N        -19.8440  -23.0610   20.3440 N.3   183  ASN183     -0.1240
     77  CA       -21.2800  -22.8620   20.0730 C.3   183  ASN183      0.1653
     78  C        -21.4000  -23.2250   18.5930 C.2   183  ASN183      0.2266
     79  O        -20.6630  -22.6910   17.8070 O.2   183  ASN183     -0.2867
     80  CB       -21.6440  -21.3860   20.3080 C.3   183  ASN183      0.1155
     81  CG       -23.0920  -21.0480   19.9060 C.2   183  ASN183      0.2627
     82  OD1      -23.8260  -21.8980   19.4290 O.2   183  ASN183     -0.2716
     83  ND2      -23.4890  -19.8070   20.1090 N.am  183  ASN183     -0.0877
     84  N        -12.5590  -16.9340   21.1480 N.3   211  ASP211     -0.1239
     85  CA       -13.8640  -16.5910   21.6920 C.3   211  ASP211      0.1674
     86  C        -14.1740  -17.5750   22.8370 C.2   211  ASP211      0.2266
     87  O        -14.5690  -18.7170   22.6050 O.2   211  ASP211     -0.2867
     88  CB       -14.9250  -16.6300   20.5550 C.3   211  ASP211      0.1410
     89  CG       -16.3480  -16.2440   21.0100 C.2   211  ASP211      0.3668
     90  OD1      -16.6690  -16.2460   22.2270 O.co2 211  ASP211     -0.2456
     91  OD2      -17.1790  -15.9760   20.1140 O.co2 211  ASP211     -0.2456
     92  N        -16.3070  -16.9770   25.5150 N.3   213  VAL213     -0.1231
     93  CA       -17.5190  -16.5300   26.2070 C.3   213  VAL213      0.1692
     94  C        -18.0820  -17.5610   27.2100 C.2   213  VAL213      0.2592
     95  O        -18.5730  -17.2090   28.2810 O.2   213  VAL213     -0.2718
     96  CB       -18.4540  -16.1320   25.0700 C.3   213  VAL213      0.0266
     97  CG1      -19.7860  -16.8310   25.0090 C.3   213  VAL213      0.0020
     98  CG2      -18.4390  -14.6300   24.8420 C.3   213  VAL213      0.0020
     99  N        -17.9820  -18.8480   26.8750 N.am  214  TYR214     -0.1976
    100  CA       -18.5650  -19.8950   27.7560 C.3   214  TYR214      0.1639
    101  C        -17.5140  -20.5130   28.6860 C.2   214  TYR214      0.2290
    102  O        -17.6840  -21.6340   29.2100 O.2   214  TYR214     -0.2864
    103  CB       -19.2640  -20.9830   26.9050 C.3   214  TYR214      0.0560
    104  CG       -20.3900  -20.4110   26.0910 C.ar  214  TYR214     -0.0198
    105  CD1      -20.3560  -20.4250   24.7070 C.ar  214  TYR214     -0.0009
    106  CD2      -21.4710  -19.8010   26.7150 C.ar  214  TYR214     -0.0009
    107  CE1      -21.3940  -19.8520   23.9440 C.ar  214  TYR214      0.0417
    108  CE2      -22.5050  -19.2150   25.9930 C.ar  214  TYR214      0.0417
    109  CZ       -22.4760  -19.2580   24.6010 C.ar  214  TYR214      0.1957
    110  OH       -23.5060  -18.6830   23.8930 O.3   214  TYR214     -0.2866
    111  N        -17.5760  -12.4630   27.8560 N.3   242  SER242     -0.1217
    112  CA       -18.8520  -11.7670   27.9100 C.3   242  SER242      0.1889
    113  C        -19.3990  -11.7740   29.3500 C.2   242  SER242      0.2288
    114  O        -19.5130  -12.8340   29.9670 O.2   242  SER242     -0.2866
    115  CB       -19.8400  -12.4650   26.9890 C.3   242  SER242      0.2089
    116  OG       -21.1400  -11.9290   27.1380 O.3   242  SER242     -0.2183
    117  N        -22.3730  -11.0940   29.9090 N.3   244  GLY244     -0.1210
    118  CA       -23.7180  -11.6450   29.6140 C.3   244  GLY244      0.1956
    119  C        -23.7230  -13.1590   29.7630 C.2   244  GLY244      0.2611
    120  O        -24.6860  -13.7410   30.2600 O.2   244  GLY244     -0.2717
    121  N        -22.6170  -13.7930   29.4000 N.am  245  LYS245     -0.1979
    122  CA       -22.4770  -15.2150   29.6530 C.3   245  LYS245      0.1596
    123  C        -21.9000  -15.5430   31.0510 C.2   245  LYS245      0.2287
    124  O        -22.3470  -16.4910   31.6980 O.2   245  LYS245     -0.2864
    125  CB       -21.7390  -15.9250   28.5040 C.3   245  LYS245      0.0298
    126  CG       -22.2190  -15.5480   27.0580 C.3   245  LYS245      0.0038
    127  CD       -23.7170  -15.8060   26.8540 C.3   245  LYS245      0.0206
    128  CE       -24.1390  -15.6920   25.4010 C.3   245  LYS245      0.1093
    129  NZ       -25.6280  -15.9370   25.1690 N.3   245  LYS245     -0.1314
    130  N        -27.7280  -11.6330   29.8460 N.3   250  THR250     -0.1218
    131  CA       -27.4920  -11.5520   28.4430 C.3   250  THR250      0.1862
    132  C        -27.9170  -10.1480   27.9310 C.2   250  THR250      0.2287
    133  O        -27.2800   -9.6190   27.0280 O.2   250  THR250     -0.2866
    134  CB       -28.2790  -12.7380   27.9370 C.3   250  THR250      0.1770
    135  OG1      -27.4860  -13.8960   27.6030 O.3   250  THR250     -0.2211
    136  CG2      -29.5660  -12.5430   27.3890 C.3   250  THR250      0.0375
    137  N        -25.1110   -6.8640   27.7530 N.3   253  LYS253     -0.1231
    138  CA       -24.3010   -6.5760   26.5690 C.3   253  LYS253      0.1693
    139  C        -22.9850   -5.8230   26.8940 C.2   253  LYS253      0.2591
    140  O        -22.7500   -4.6830   26.4380 O.2   253  LYS253     -0.2718
    141  CB       -25.1220   -5.8120   25.5090 C.3   253  LYS253      0.0285
    142  CG       -26.1760   -6.6630   24.7940 C.3   253  LYS253      0.0035
    143  CD       -25.5030   -7.7970   23.9290 C.3   253  LYS253      0.0206
    144  CE       -24.5760   -7.2250   22.8390 C.3   253  LYS253      0.1093
    145  NZ       -24.3790   -8.3250   21.8050 N.3   253  LYS253     -0.1314
    146  N        -22.1610   -6.4520   27.7150 N.am  254  ILE254     -0.1980
    147  CA       -20.8300   -5.9630   28.0030 C.3   254  ILE254      0.1595
    148  C        -19.9290   -7.1740   27.9190 C.2   254  ILE254      0.2287
    149  O        -20.2260   -8.2100   28.5180 O.2   254  ILE254     -0.2864
    150  CB       -20.7150   -5.3820   29.4370 C.3   254  ILE254      0.0276
    151  CG1      -21.4740   -4.0350   29.5650 C.3   254  ILE254      0.0022
    152  CG2      -19.2270   -5.2420   29.8220 C.3   254  ILE254      0.0022
    153  CD1      -21.0760   -2.8540   28.6130 C.3   254  ILE254      0.0001
    154  N        -25.7780  -25.3530   25.1250 N.3   337  PHE337     -0.1241
    155  CA       -26.4660  -25.7220   23.8970 C.3   337  PHE337      0.1605
    156  C        -26.2210  -27.1950   23.6250 C.2   337  PHE337      0.2264
    157  O        -25.1610  -27.7460   23.9840 O.2   337  PHE337     -0.2867
    158  CB       -25.9860  -24.9160   22.7100 C.3   337  PHE337      0.0534
    159  CG       -26.3180  -23.4490   22.7670 C.ar  337  PHE337     -0.0203
    160  CD1      -27.6330  -23.0060   22.7870 C.ar  337  PHE337     -0.0042
    161  CD2      -25.2910  -22.5020   22.6900 C.ar  337  PHE337     -0.0042
    162  CE1      -27.9150  -21.6430   22.7850 C.ar  337  PHE337     -0.0003
    163  CE2      -25.5680  -21.1200   22.6720 C.ar  337  PHE337     -0.0003
    164  CZ       -26.8840  -20.6910   22.7420 C.ar  337  PHE337     -0.0000
    165  N        -30.4200  -27.3950   17.1250 N.3   395  ARG395     -0.1245
    166  CA       -29.7750  -26.9440   18.3520 C.3   395  ARG395      0.1563
    167  C        -30.8340  -26.4900   19.3270 C.2   395  ARG395      0.2260
    168  O        -31.7100  -25.6900   18.9690 O.2   395  ARG395     -0.2867
    169  CB       -28.8050  -25.7840   18.0780 C.3   395  ARG395      0.0307
    170  CG       -28.0490  -25.3010   19.3590 C.3   395  ARG395      0.0489
    171  CD       -27.3290  -23.9750   19.2030 C.3   395  ARG395      0.2205
    172  NE       -28.1770  -22.8130   19.5190 N.pl3 395  ARG395     -0.0865
    173  CZ       -27.7780  -21.5400   19.4540 C.cat 395  ARG395      0.5346
    174  NH1      -26.5400  -21.2430   19.1200 N.pl3 395  ARG395      0.1354
    175  NH2      -28.6140  -20.5600   19.7700 N.pl3 395  ARG395      0.1354
@<TRIPOS>BOND
     1     1     2    1
     2    60    59    2
     3    59    58    1
     4     3     2    1
     5     3     4    2
     6     2     5    1
     7    57    58    1
     8     7     9   ar
     9     7     6   ar
    10    58    61    1
    11     5     6    1
    12    52    51    2
    13     9    10   ar
    14     6     8   ar
    15    45    47   ar
    16    45    43   ar
    17    10     8   ar
    18    10    12   ar
    19    48    47    1
    20     8    11   ar
    21    51    50    1
    22    61    62    1
    23    12    14   ar
    24    47    46   ar
    25    11    13   ar
    26   165   166    1
    27    43    42   ar
    28    63    62   ar
    29    63    65   ar
    30    62    64   ar
    31    14    13   ar
    32    53    50    1
    33    53    54    1
    34    65    67   ar
    35    50    49    1
    36    79    78    2
    37    64    66   ar
    38    56    54    1
    39   169   166    1
    40   169   170    1
    41    40    39    2
    42    67    66   ar
    43   166   167    1
    44    46    44   ar
    45    54    55    1
    46    42    44   ar
    47    42    41    1
    48    78    77    1
    49   168   167    2
    50    68    69    1
    51   174   173    1
    52    72    69    1
    53    72    73    1
    54   171   170    1
    55   171   172    1
    56    39    38    1
    57    82    81    2
    58   173   172    2
    59   173   175    1
    60    41    38    1
    61    75    73   am
    62    38    37    1
    63    69    70    1
    64    81    83   am
    65    81    80    1
    66    73    74    2
    67    77    80    1
    68    77    76    1
    69    91    89   ar
    70    71    70    2
    71    88    89    1
    72    88    85    1
    73    35    34    2
    74    89    90   ar
    75    15    16    1
    76    23    21   am
    77    37    34   am
    78    84    85    1
    79    19    16    1
    80    19    20    1
    81    16    17    1
    82    34    33    1
    83    21    20    1
    84    21    22    2
    85    85    86    1
    86   145   144    1
    87    87    86    2
    88   163   161   ar
    89   163   164   ar
    90   161   159   ar
    91   158   159    1
    92   158   155    1
    93   164   162   ar
    94   159   160   ar
    95   162   160   ar
    96   144   143    1
    97    17    24   am
    98    17    18    2
    99    33    36    1
   100    33    32    1
   101    24    25    1
   102    31    30    2
   103   156   155    1
   104   156   157    2
   105    30    32   am
   106    30    29    1
   107   110   109    1
   108   155   154    1
   109   143   142    1
   110   107   109   ar
   111   107   105   ar
   112    29    28    1
   113    25    26    1
   114   109   108   ar
   115   105   104   ar
   116   142   141    1
   117    98    96    1
   118    97    96    1
   119    96    93    1
   120   129   128    1
   121   128   127    1
   122    27    26    2
   123   141   138    1
   124    92    93    1
   125   108   106   ar
   126   104   106   ar
   127   104   103    1
   128    93    94    1
   129   140   139    2
   130   138   139    1
   131   138   137    1
   132   127   126    1
   133    99    94   am
   134    99   100    1
   135   139   146   am
   136   103   100    1
   137   115   116    1
   138   115   112    1
   139   133   132    2
   140   126   125    1
   141    94    95    2
   142   136   134    1
   143   135   134    1
   144   146   147    1
   145   100   101    1
   146   111   112    1
   147   112   113    1
   148   148   147    1
   149   148   149    2
   150   132   131    1
   151   134   131    1
   152   147   150    1
   153   131   130    1
   154   125   122    1
   155   153   151    1
   156   101   102    2
   157   113   114    2
   158   121   122    1
   159   121   119   am
   160   150   151    1
   161   150   152    1
   162   118   119    1
   163   118   117    1
   164   122   123    1
   165   119   120    2
   166   123   124    2
