@<TRIPOS>MOLECULE
tmp/2r5nA00.pdb
 93 89 0 0 0
SMALL
GASTEIGER

@<TRIPOS>ATOM
      1  N         -3.3010   60.4390   51.2790 N.3   357  ARG357     -0.1245
      2  CA        -2.8610   60.6600   52.6780 C.3   357  ARG357      0.1563
      3  C         -4.0060   61.2710   53.5010 C.2   357  ARG357      0.2260
      4  O         -4.1840   60.9190   54.6730 O.2   357  ARG357     -0.2867
      5  CB        -1.5910   61.5210   52.7900 C.3   357  ARG357      0.0307
      6  CG        -1.6900   62.9190   52.1940 C.3   357  ARG357      0.0489
      7  CD        -0.5140   63.7860   52.6760 C.3   357  ARG357      0.2205
      8  NE        -0.5980   65.1410   52.1230 N.pl3 357  ARG357     -0.0865
      9  CZ         0.2240   66.1470   52.4150 C.cat 357  ARG357      0.5346
     10  NH1        1.2320   65.9880   53.2710 N.pl3 357  ARG357      0.1354
     11  NH2        0.0530   67.3320   51.8130 N.pl3 357  ARG357      0.1354
     12  N          6.6440   62.8550   61.4870 N.3   381  LEU381     -0.1245
     13  CA         5.9280   63.4100   60.3400 C.3   381  LEU381      0.1561
     14  C          4.4040   63.4930   60.5280 C.2   381  LEU381      0.2260
     15  O          3.6580   63.3820   59.5630 O.2   381  LEU381     -0.2867
     16  CB         6.2920   62.6350   59.0560 C.3   381  LEU381      0.0270
     17  CG         7.7280   62.8030   58.5220 C.3   381  LEU381      0.0019
     18  CD1        8.0480   61.7410   57.4730 C.3   381  LEU381      0.0001
     19  CD2        7.9570   64.2130   57.9340 C.3   381  LEU381      0.0001
     20  N          2.2830   65.9460   60.8410 N.3   383  PRO383     -0.2102
     21  CA         1.5220   66.8880   60.0020 C.3   383  PRO383      0.1504
     22  C          1.6200   66.6260   58.5080 C.2   383  PRO383      0.2576
     23  O          0.9110   67.2820   57.7250 O.2   383  PRO383     -0.2718
     24  CB         2.1390   68.2570   60.3410 C.3   383  PRO383      0.0282
     25  CG         3.5130   67.9580   60.7910 C.3   383  PRO383      0.0208
     26  CD         3.5260   66.5440   61.3620 C.3   383  PRO383      0.0893
     27  N          2.4770   65.6800   58.1220 N.am  384  SER384     -0.1953
     28  CA         2.7070   65.3430   56.7130 C.3   384  SER384      0.1924
     29  C          2.0730   63.9920   56.3570 C.2   384  SER384      0.2314
     30  O          1.4110   63.8560   55.3110 O.2   384  SER384     -0.2863
     31  CB         4.2060   65.3170   56.3980 C.3   384  SER384      0.2116
     32  OG         4.7570   66.6230   56.3630 O.3   384  SER384     -0.2180
     33  N          7.3110   58.7400   55.3030 N.3   433  PHE433     -0.1241
     34  CA         7.2740   58.7930   53.8420 C.3   433  PHE433      0.1605
     35  C          7.6850   57.4240   53.3050 C.2   433  PHE433      0.2264
     36  O          8.5940   56.7960   53.8620 O.2   433  PHE433     -0.2867
     37  CB         8.2830   59.8150   53.3140 C.3   433  PHE433      0.0534
     38  CG         7.9660   61.2490   53.6680 C.ar  433  PHE433     -0.0203
     39  CD1        6.6590   61.6810   53.8850 C.ar  433  PHE433     -0.0042
     40  CD2        9.0030   62.1820   53.7360 C.ar  433  PHE433     -0.0042
     41  CE1        6.3840   63.0230   54.1900 C.ar  433  PHE433     -0.0003
     42  CE2        8.7310   63.5220   54.0340 C.ar  433  PHE433     -0.0003
     43  CZ         7.4220   63.9390   54.2640 C.ar  433  PHE433     -0.0000
     44  N         11.3410   56.1030   53.1490 N.3   436  PHE436     -0.1241
     45  CA        12.0570   55.7450   54.3650 C.3   436  PHE436      0.1605
     46  C         11.6040   54.4260   54.9920 C.2   436  PHE436      0.2264
     47  O         12.1440   54.0050   56.0220 O.2   436  PHE436     -0.2867
     48  CB        12.1290   56.9590   55.3040 C.3   436  PHE436      0.0534
     49  CG        12.6990   58.1630   54.6080 C.ar  436  PHE436     -0.0203
     50  CD1       13.9160   58.0600   53.9360 C.ar  436  PHE436     -0.0042
     51  CD2       11.9950   59.3630   54.5470 C.ar  436  PHE436     -0.0042
     52  CE1       14.4510   59.1550   53.2300 C.ar  436  PHE436     -0.0003
     53  CE2       12.5200   60.4640   53.8570 C.ar  436  PHE436     -0.0003
     54  CZ        13.7450   60.3560   53.1920 C.ar  436  PHE436     -0.0000
     55  N          3.4170   59.9820   50.3760 N.3   460  HIS460     -0.1241
     56  CA         4.3770   60.6230   49.4500 C.3   460  HIS460      0.1621
     57  C          4.9810   59.5200   48.5690 C.2   460  HIS460      0.2264
     58  O          6.1890   59.2530   48.5620 O.2   460  HIS460     -0.2867
     59  CB         5.4350   61.4390   50.2240 C.3   460  HIS460      0.0745
     60  CG         4.8610   62.5970   50.9810 C.ar  460  HIS460      0.0817
     61  ND1        3.8920   62.4520   51.9550 N.ar  460  HIS460     -0.2268
     62  CD2        5.1260   63.9240   50.9120 C.ar  460  HIS460      0.1154
     63  CE1        3.5720   63.6400   52.4370 C.ar  460  HIS460      0.1986
     64  NE2        4.3080   64.5500   51.8220 N.ar  460  HIS460     -0.2212
     65  N         10.7950   67.8180   46.5040 N.3   468  ASP468     -0.1239
     66  CA        11.8410   67.2250   47.3650 C.3   468  ASP468      0.1674
     67  C         12.8360   66.3440   46.5970 C.2   468  ASP468      0.2266
     68  O         13.9600   66.1430   47.0520 O.2   468  ASP468     -0.2867
     69  CB        11.2530   66.4740   48.5610 C.3   468  ASP468      0.1410
     70  CG        10.8750   67.4010   49.7260 C.2   468  ASP468      0.3668
     71  OD1       11.2960   68.5940   49.7440 O.co2 468  ASP468     -0.2456
     72  OD2       10.1560   66.9190   50.6360 O.co2 468  ASP468     -0.2456
     73  N         13.8400   61.4180   47.8890 N.3   472  HIS472     -0.1241
     74  CA        12.5160   61.1970   48.5260 C.3   472  HIS472      0.1621
     75  C         11.4930   60.4540   47.6570 C.2   472  HIS472      0.2264
     76  O         10.5670   59.8230   48.1880 O.2   472  HIS472     -0.2867
     77  CB        11.8860   62.5440   48.9020 C.3   472  HIS472      0.0745
     78  CG        12.4920   63.1790   50.1130 C.ar  472  HIS472      0.0817
     79  ND1       13.8510   63.3840   50.2480 N.ar  472  HIS472     -0.2268
     80  CD2       11.9250   63.6670   51.2420 C.ar  472  HIS472      0.1154
     81  CE1       14.0930   63.9660   51.4100 C.ar  472  HIS472      0.1986
     82  NE2       12.9430   64.1540   52.0300 N.ar  472  HIS472     -0.2212
     83  N          0.7250   62.3130   48.0690 N.3   519  ARG519     -0.1245
     84  CA         0.7490   63.7020   48.5490 C.3   519  ARG519      0.1563
     85  C         -0.3290   64.5130   47.8390 C.2   519  ARG519      0.2260
     86  O         -0.9540   65.3900   48.4460 O.2   519  ARG519     -0.2867
     87  CB         2.1150   64.3550   48.2880 C.3   519  ARG519      0.0307
     88  CG         2.2230   65.7970   48.8000 C.3   519  ARG519      0.0489
     89  CD         3.5660   66.4230   48.4620 C.3   519  ARG519      0.2205
     90  NE         3.8270   67.6440   49.2370 N.pl3 519  ARG519     -0.0865
     91  CZ         4.0970   68.8360   48.7050 C.cat 519  ARG519      0.5346
     92  NH1        4.1480   68.9910   47.3860 N.pl3 519  ARG519      0.1354
     93  NH2        4.3230   69.8840   49.4950 N.pl3 519  ARG519      0.1354
@<TRIPOS>BOND
     1    65    66    1
     2    67    68    2
     3    67    66    1
     4    66    69    1
     5    92    91    1
     6    75    76    2
     7    75    74    1
     8    85    86    2
     9    85    84    1
    10    73    74    1
    11    83    84    1
    12    87    84    1
    13    87    88    1
    14    89    88    1
    15    89    90    1
    16    74    77    1
    17    69    70    1
    18    58    57    2
    19    57    56    1
    20    91    90    2
    21    91    93    1
    22    77    78    1
    23    56    59    1
    24    56    55    1
    25    70    71   ar
    26    70    72   ar
    27    78    79   ar
    28    78    80   ar
    29    59    60    1
    30    79    81   ar
    31    62    60   ar
    32    62    64   ar
    33    60    61   ar
    34    80    82   ar
    35     1     2    1
    36    81    82   ar
    37    11     9    1
    38    64    63   ar
    39    61    63   ar
    40     8     9    2
    41     8     7    1
    42     6     7    1
    43     6     5    1
    44     9    10    1
    45     2     5    1
    46     2     3    1
    47    44    45    1
    48    54    52   ar
    49    54    53   ar
    50    52    50   ar
    51    35    34    1
    52    35    36    2
    53    37    38    1
    54    37    34    1
    55     3     4    2
    56    38    40   ar
    57    38    39   ar
    58    40    42   ar
    59    34    33    1
    60    53    51   ar
    61    39    41   ar
    62    50    49   ar
    63    42    43   ar
    64    41    43   ar
    65    45    46    1
    66    45    48    1
    67    51    49   ar
    68    49    48    1
    69    46    47    2
    70    30    29    2
    71    29    28    1
    72    32    31    1
    73    31    28    1
    74    28    27    1
    75    18    17    1
    76    23    22    2
    77    19    17    1
    78    27    22   am
    79    22    21    1
    80    17    16    1
    81    16    13    1
    82    15    14    2
    83    21    24    1
    84    21    20    1
    85    13    14    1
    86    13    12    1
    87    24    25    1
    88    25    26    1
    89    20    26    1
