@<TRIPOS>MOLECULE
tmp/2r5sA00.pdb
 78 71 0 0 0
SMALL
GASTEIGER

@<TRIPOS>ATOM
      1  N         13.7620   84.3210   32.8550 N.3     2  GLU2       -0.1245
      2  CA        12.5880   84.9550   33.5010 C.3     2  GLU2        0.1567
      3  C         11.2850   84.1220   33.5990 C.2     2  GLU2        0.2260
      4  O         10.6280   84.0930   34.6580 O.2     2  GLU2       -0.2867
      5  CB        12.3060   86.2910   32.7750 C.3     2  GLU2        0.0388
      6  CG        10.8720   86.8340   32.9300 C.3     2  GLU2        0.1160
      7  CD        10.6360   88.1250   32.1660 C.2     2  GLU2        0.3649
      8  OE1       10.2070   89.1190   32.8060 O.co2   2  GLU2       -0.2457
      9  OE2       10.8600   88.1470   30.9310 O.co2   2  GLU2       -0.2457
     10  N         11.9040   80.3980   35.0190 N.3     5  LEU5       -0.1231
     11  CA        11.7590   80.4660   36.4730 C.3     5  LEU5        0.1693
     12  C         10.3230   80.3060   36.9130 C.2     5  LEU5        0.2591
     13  O         10.0970   79.7500   37.9770 O.2     5  LEU5       -0.2718
     14  CB        12.3410   81.7620   37.0550 C.3     5  LEU5        0.0284
     15  CG        13.8570   81.8220   37.2590 C.3     5  LEU5        0.0019
     16  CD1       14.2520   83.0540   38.0460 C.3     5  LEU5        0.0001
     17  CD2       14.2980   80.6260   38.0160 C.3     5  LEU5        0.0001
     18  N          9.3590   80.7850   36.1180 N.am    6  LYS6       -0.1980
     19  CA         7.9260   80.5570   36.4390 C.3     6  LYS6        0.1596
     20  C          7.4730   79.1680   36.0300 C.2     6  LYS6        0.2287
     21  O          6.5730   78.6030   36.6340 O.2     6  LYS6       -0.2864
     22  CB         6.9720   81.6320   35.8560 C.3     6  LYS6        0.0298
     23  CG         5.7020   81.8010   36.7170 C.3     6  LYS6        0.0038
     24  CD         4.8140   83.0370   36.3370 C.3     6  LYS6        0.0206
     25  CE         3.3680   82.8630   36.8320 C.3     6  LYS6        0.1093
     26  NZ         2.6210   84.1300   37.1930 N.3     6  LYS6       -0.1314
     27  N          9.5960   76.5700   36.4520 N.3     8  VAL8       -0.1231
     28  CA        10.0080   75.8460   37.6930 C.3     8  VAL8        0.1692
     29  C          8.9610   76.0060   38.7810 C.2     8  VAL8        0.2592
     30  O          8.4660   75.0270   39.3600 O.2     8  VAL8       -0.2718
     31  CB        11.3400   76.3260   38.2910 C.3     8  VAL8        0.0266
     32  CG1       11.6440   75.5630   39.5640 C.3     8  VAL8        0.0020
     33  CG2       12.4650   76.1150   37.3180 C.3     8  VAL8        0.0020
     34  N          8.6310   77.2620   39.0410 N.am    9  SER9       -0.1952
     35  CA         7.6260   77.6330   40.0280 C.3     9  SER9        0.1924
     36  C          6.3160   76.8670   39.8150 C.2     9  SER9        0.2314
     37  O          5.8090   76.2330   40.7330 O.2     9  SER9       -0.2863
     38  CB         7.4020   79.1440   39.9680 C.3     9  SER9        0.2116
     39  OG         6.3010   79.5330   40.7740 O.3     9  SER9       -0.2180
     40  N          6.9040   72.9480   40.4360 N.3    12  LEU12      -0.1245
     41  CA         6.9480   72.6230   41.8710 C.3    12  LEU12       0.1561
     42  C          5.5460   72.6590   42.5350 C.2    12  LEU12       0.2260
     43  O          5.1480   71.7600   43.2820 O.2    12  LEU12      -0.2867
     44  CB         7.8850   73.5840   42.6090 C.3    12  LEU12       0.0270
     45  CG         9.3680   73.5650   42.3280 C.3    12  LEU12       0.0019
     46  CD1        9.9690   74.9010   42.7810 C.3    12  LEU12       0.0001
     47  CD2       10.0250   72.3720   43.0390 C.3    12  LEU12       0.0001
     48  N         21.9260   80.7240   42.1150 N.3    34  ARG34      -0.1245
     49  CA        21.2080   81.6560   42.9750 C.3    34  ARG34       0.1563
     50  C         20.6880   80.8510   44.1610 C.2    34  ARG34       0.2260
     51  O         20.2270   79.7330   43.9990 O.2    34  ARG34      -0.2867
     52  CB        20.0770   82.3430   42.2220 C.3    34  ARG34       0.0307
     53  CG        19.8840   83.7850   42.6210 C.3    34  ARG34       0.0489
     54  CD        18.8680   84.4170   41.6670 C.3    34  ARG34       0.2205
     55  NE        17.4930   84.1260   42.0640 N.pl3  34  ARG34      -0.0865
     56  CZ        16.4420   84.6870   41.4760 C.cat  34  ARG34       0.5346
     57  NH1       15.1890   84.4240   41.9080 N.pl3  34  ARG34       0.1354
     58  NH2       16.6380   85.5170   40.4470 N.pl3  34  ARG34       0.1354
     59  N         18.1230   80.8030   45.9190 N.3    36  ASP36      -0.1225
     60  CA        16.6830   80.3670   46.0140 C.3    36  ASP36       0.1805
     61  C         16.4670   79.2170   45.0230 C.2    36  ASP36       0.2597
     62  O         15.6850   78.3350   45.2790 O.2    36  ASP36      -0.2718
     63  CB        15.6680   81.5070   45.7790 C.3    36  ASP36       0.1424
     64  CG        15.8550   82.2620   44.4460 C.2    36  ASP36       0.3668
     65  OD1       16.9270   82.2440   43.8380 O.co2  36  ASP36      -0.2456
     66  OD2       14.9120   82.9400   44.0060 O.co2  36  ASP36      -0.2456
     67  N         17.2740   79.1810   43.9320 N.am   37  VAL37      -0.1980
     68  CA        17.1450   78.1470   42.9160 C.3    37  VAL37       0.1595
     69  C         17.7290   76.8700   43.4700 C.2    37  VAL37       0.2287
     70  O         17.1120   75.7950   43.3170 O.2    37  VAL37      -0.2864
     71  CB        17.7050   78.5460   41.5230 C.3    37  VAL37       0.0276
     72  CG1       17.5840   77.4010   40.5520 C.3    37  VAL37       0.0022
     73  CG2       16.8810   79.6680   40.9630 C.3    37  VAL37       0.0022
     74  N         15.0190   75.2620   45.8500 N.3    40  ALA40      -0.1245
     75  CA        14.1840   74.5740   44.8070 C.3    40  ALA40       0.1562
     76  C         14.7690   73.2230   44.3540 C.2    40  ALA40       0.2260
     77  O         14.0980   72.2030   44.3760 O.2    40  ALA40      -0.2867
     78  CB        14.0390   75.5120   43.5420 C.3    40  ALA40       0.0290
@<TRIPOS>BOND
     1     9     7   ar
     2     7     8   ar
     3     7     6    1
     4     5     6    1
     5     5     2    1
     6     1     2    1
     7     2     3    1
     8     3     4    2
     9    10    11    1
    10    22    19    1
    11    22    23    1
    12    20    19    1
    13    20    21    2
    14    18    19    1
    15    18    12   am
    16    24    23    1
    17    24    25    1
    18    27    28    1
    19    11    12    1
    20    11    14    1
    21    25    26    1
    22    12    13    2
    23    14    15    1
    24    15    17    1
    25    15    16    1
    26    33    31    1
    27    28    31    1
    28    28    29    1
    29    31    32    1
    30    29    34   am
    31    29    30    2
    32    34    35    1
    33    36    35    1
    34    36    37    2
    35    38    35    1
    36    38    39    1
    37    40    41    1
    38    58    56    1
    39    72    71    1
    40    73    71    1
    41    56    57    1
    42    56    55    2
    43    71    68    1
    44    54    55    1
    45    54    53    1
    46    41    42    1
    47    41    44    1
    48    48    49    1
    49    52    53    1
    50    52    49    1
    51    45    44    1
    52    45    46    1
    53    45    47    1
    54    42    43    2
    55    68    69    1
    56    68    67    1
    57    49    50    1
    58    70    69    2
    59    78    75    1
    60    65    64   ar
    61    67    61   am
    62    51    50    2
    63    66    64   ar
    64    76    77    2
    65    76    75    1
    66    64    63    1
    67    75    74    1
    68    61    62    2
    69    61    60    1
    70    63    60    1
    71    59    60    1
