@<TRIPOS>MOLECULE
tmp/2r5tA00.pdb
 193 182 0 0 0
SMALL
GASTEIGER

@<TRIPOS>ATOM
      1  N         39.7890   33.8510   60.6660 N.3    23  ILE23      -0.1231
      2  CA        39.3290   32.7120   61.4600 C.3    23  ILE23       0.1692
      3  C         37.9160   32.3070   61.0540 C.2    23  ILE23       0.2593
      4  O         37.6460   31.1260   60.8060 O.2    23  ILE23      -0.2718
      5  CB        39.3650   33.0220   62.9780 C.3    23  ILE23       0.0266
      6  CG1       40.8040   33.0290   63.4930 C.3    23  ILE23       0.0019
      7  CG2       38.5320   32.0010   63.7640 C.3    23  ILE23       0.0020
      8  CD1       40.9380   33.5830   64.8950 C.3    23  ILE23       0.0001
      9  N         37.0210   33.2920   60.9880 N.am   24  GLY24      -0.1942
     10  CA        35.6260   33.0500   60.6370 C.3    24  GLY24       0.2014
     11  C         34.8470   34.3220   60.3720 C.2    24  GLY24       0.2639
     12  O         35.2710   35.4170   60.7460 O.2    24  GLY24      -0.2714
     13  N         33.7060   34.1660   59.7080 N.am   25  LYS25      -0.1963
     14  CA        32.8000   35.2750   59.4350 C.3    25  LYS25       0.1728
     15  C         31.5680   35.1770   60.3220 C.2    25  LYS25       0.2617
     16  O         30.9360   34.1230   60.4160 O.2    25  LYS25      -0.2715
     17  CB        32.3860   35.2930   57.9610 C.3    25  LYS25       0.0311
     18  CG        33.3660   36.0060   57.0420 C.3    25  LYS25       0.0038
     19  CD        32.7510   36.2430   55.6760 C.3    25  LYS25       0.0206
     20  CE        33.6170   37.1560   54.8290 C.3    25  LYS25       0.1093
     21  NZ        32.9730   37.4430   53.5200 N.3    25  LYS25      -0.1314
     22  N         31.2290   36.2850   60.9680 N.am   26  GLY26      -0.1940
     23  CA        30.0840   36.3170   61.8630 C.3    26  GLY26       0.2014
     24  C         29.0830   37.4060   61.5410 C.2    26  GLY26       0.2640
     25  O         29.4370   38.4340   60.9590 O.2    26  GLY26      -0.2714
     26  N         27.8320   37.1730   61.9390 N.am   27  SER27      -0.1935
     27  CA        26.7240   38.1070   61.7130 C.3    27  SER27       0.2055
     28  C         27.0260   39.5250   62.1900 C.2    27  SER27       0.2643
     29  O         26.4820   40.4940   61.6550 O.2    27  SER27      -0.2714
     30  CB        25.4600   37.6070   62.4110 C.3    27  SER27       0.2130
     31  OG        25.2160   36.2450   62.1140 O.3    27  SER27      -0.2179
     32  N         27.8950   39.6340   63.1920 N.am   28  PHE28      -0.1973
     33  CA        28.2020   40.9120   63.8180 C.3    28  PHE28       0.1639
     34  C         29.6650   41.3220   63.6330 C.2    28  PHE28       0.2290
     35  O         30.1710   42.1990   64.3420 O.2    28  PHE28      -0.2864
     36  CB        27.8030   40.8780   65.2990 C.3    28  PHE28       0.0560
     37  CG        26.3510   40.5520   65.5230 C.ar   28  PHE28      -0.0200
     38  CD1       25.3840   41.5540   65.4710 C.ar   28  PHE28      -0.0042
     39  CD2       25.9470   39.2410   65.7710 C.ar   28  PHE28      -0.0042
     40  CE1       24.0370   41.2560   65.6710 C.ar   28  PHE28      -0.0003
     41  CE2       24.6030   38.9340   65.9700 C.ar   28  PHE28      -0.0003
     42  CZ        23.6460   39.9410   65.9190 C.ar   28  PHE28      -0.0000
     43  N         36.0490   37.6770   62.3040 N.3    31  VAL31      -0.1245
     44  CA        37.0570   37.3530   63.3200 C.3    31  VAL31       0.1561
     45  C         38.3740   36.9670   62.6400 C.2    31  VAL31       0.2260
     46  O         38.4160   36.0420   61.8270 O.2    31  VAL31      -0.2867
     47  CB        36.5780   36.2340   64.2930 C.3    31  VAL31       0.0252
     48  CG1       37.6360   35.9260   65.3390 C.3    31  VAL31       0.0019
     49  CG2       35.2770   36.6340   64.9750 C.3    31  VAL31       0.0019
     50  N         42.5800   36.5990   68.7960 N.3    44  ALA44      -0.1245
     51  CA        41.4750   36.6570   67.8540 C.3    44  ALA44       0.1562
     52  C         40.9260   38.0760   67.9160 C.2    44  ALA44       0.2260
     53  O         40.6180   38.5730   68.9970 O.2    44  ALA44      -0.2867
     54  CB        40.3970   35.6390   68.2180 C.3    44  ALA44       0.0290
     55  N         37.8900   40.5090   66.6450 N.3    46  LYS46      -0.1245
     56  CA        36.6100   40.7480   65.9880 C.3    46  LYS46       0.1561
     57  C         36.5400   42.1950   65.5140 C.2    46  LYS46       0.2260
     58  O         36.8310   43.1280   66.2700 O.2    46  LYS46      -0.2867
     59  CB        35.4370   40.4200   66.9180 C.3    46  LYS46       0.0271
     60  CG        34.0880   40.4020   66.2100 C.3    46  LYS46       0.0035
     61  CD        32.9790   39.8990   67.1220 C.3    46  LYS46       0.0206
     62  CE        31.6420   39.8200   66.4010 C.3    46  LYS46       0.1093
     63  NZ        31.6240   38.7180   65.4090 N.3    46  LYS46      -0.1314
     64  N         34.8160   33.2860   76.5100 N.3    66  VAL66      -0.1245
     65  CA        36.0500   33.7800   75.8980 C.3    66  VAL66       0.1561
     66  C         36.4860   35.0940   76.5620 C.2    66  VAL66       0.2260
     67  O         35.6530   35.9620   76.8340 O.2    66  VAL66      -0.2867
     68  CB        35.9200   33.9340   74.3470 C.3    66  VAL66       0.0252
     69  CG1       34.8720   34.9770   73.9770 C.3    66  VAL66       0.0019
     70  CG2       37.2730   34.2730   73.7100 C.3    66  VAL66       0.0019
     71  N         40.4370   39.4860   71.6150 N.3    82  LEU82      -0.1231
     72  CA        39.9670   38.3240   72.3640 C.3    82  LEU82       0.1693
     73  C         41.0480   37.2440   72.4700 C.2    82  LEU82       0.2592
     74  O         41.9970   37.2400   71.6870 O.2    82  LEU82      -0.2718
     75  CB        38.7310   37.7370   71.6630 C.3    82  LEU82       0.0284
     76  CG        37.5970   38.6810   71.2330 C.3    82  LEU82       0.0019
     77  CD1       36.7930   38.0790   70.0860 C.3    82  LEU82       0.0001
     78  CD2       36.6850   39.0360   72.4100 C.3    82  LEU82       0.0001
     79  N         40.9080   36.3460   73.4470 N.am   83  ASP83      -0.1960
     80  CA        41.6750   35.0960   73.4870 C.3    83  ASP83       0.1840
     81  C         41.5100   34.3840   72.1530 C.2    83  ASP83       0.2622
     82  O         40.3860   34.2510   71.6630 O.2    83  ASP83      -0.2715
     83  CB        41.1110   34.1380   74.5410 C.3    83  ASP83       0.1450
     84  CG        41.5790   34.4280   75.9440 C.2    83  ASP83       0.3671
     85  OD1       42.5810   35.1460   76.1440 O.co2  83  ASP83      -0.2456
     86  OD2       40.9260   33.8980   76.8680 O.co2  83  ASP83      -0.2456
     87  N         42.6120   33.9170   71.5760 N.am   84  TYR84      -0.1960
     88  CA        42.5330   33.0420   70.4180 C.3    84  TYR84       0.1771
     89  C         42.3380   31.6170   70.9110 C.2    84  TYR84       0.2619
     90  O         43.2290   31.0360   71.5340 O.2    84  TYR84      -0.2715
     91  CB        43.7800   33.1610   69.5350 C.3    84  TYR84       0.0574
     92  CG        43.8760   32.1210   68.4390 C.ar   84  TYR84      -0.0198
     93  CD1       42.8120   31.8970   67.5610 C.ar   84  TYR84      -0.0009
     94  CD2       45.0350   31.3610   68.2770 C.ar   84  TYR84      -0.0009
     95  CE1       42.8960   30.9350   66.5520 C.ar   84  TYR84       0.0417
     96  CE2       45.1360   30.4040   67.2650 C.ar   84  TYR84       0.0417
     97  CZ        44.0610   30.1970   66.4100 C.ar   84  TYR84       0.1957
     98  OH        44.1460   29.2520   65.4130 O.3    84  TYR84      -0.2866
     99  N         41.1560   31.0700   70.6370 N.am   85  ILE85      -0.1977
    100  CA        40.7940   29.7240   71.0730 C.3    85  ILE85       0.1596
    101  C         41.1080   28.7540   69.9360 C.2    85  ILE85       0.2287
    102  O         40.5190   28.8510   68.8640 O.2    85  ILE85      -0.2864
    103  CB        39.2980   29.6540   71.4580 C.3    85  ILE85       0.0276
    104  CG1       38.9300   30.7940   72.4140 C.3    85  ILE85       0.0022
    105  CG2       38.9370   28.2840   72.0510 C.3    85  ILE85       0.0022
    106  CD1       39.6990   30.7910   73.7550 C.3    85  ILE85       0.0001
    107  N         36.3890   23.7880   67.0140 N.3    89  GLU89      -0.1245
    108  CA        34.9600   23.7910   67.3000 C.3    89  GLU89       0.1567
    109  C         34.5640   22.4500   67.9300 C.2    89  GLU89       0.2260
    110  O         34.9690   21.3880   67.4610 O.2    89  GLU89      -0.2867
    111  CB        34.1680   24.0510   66.0060 C.3    89  GLU89       0.0388
    112  CG        34.2230   25.5130   65.5380 C.3    89  GLU89       0.1160
    113  CD        33.9590   25.6980   64.0480 C.2    89  GLU89       0.3649
    114  OE1       33.0430   25.0400   63.5030 O.co2  89  GLU89      -0.2457
    115  OE2       34.6660   26.5130   63.4180 O.co2  89  GLU89      -0.2457
    116  N         21.9270   34.1580   77.4290 N.3   126  TYR126     -0.1241
    117  CA        22.8220   33.9120   76.2960 C.3   126  TYR126      0.1605
    118  C         22.0890   34.0860   74.9610 C.2   126  TYR126      0.2264
    119  O         22.6230   34.6990   74.0310 O.2   126  TYR126     -0.2867
    120  CB        23.4830   32.5230   76.3840 C.3   126  TYR126      0.0534
    121  CG        24.7260   32.4290   75.5210 C.ar  126  TYR126     -0.0201
    122  CD1       25.9970   32.6540   76.0660 C.ar  126  TYR126     -0.0009
    123  CD2       24.6300   32.1790   74.1500 C.ar  126  TYR126     -0.0009
    124  CE1       27.1430   32.6070   75.2620 C.ar  126  TYR126      0.0417
    125  CE2       25.7640   32.1350   73.3460 C.ar  126  TYR126      0.0417
    126  CZ        27.0140   32.3470   73.9120 C.ar  126  TYR126      0.1957
    127  OH        28.1320   32.2940   73.1200 O.3   126  TYR126     -0.2866
    128  N         21.3790   32.9130   72.0070 N.3   128  ASP128     -0.1239
    129  CA        21.6240   32.2060   70.7530 C.3   128  ASP128      0.1674
    130  C         22.8910   31.3480   70.7640 C.2   128  ASP128      0.2266
    131  O         23.8020   31.5180   69.9490 O.2   128  ASP128     -0.2867
    132  CB        21.5860   33.1680   69.5680 C.3   128  ASP128      0.1410
    133  CG        22.3000   34.4600   69.8490 C.2   128  ASP128      0.3668
    134  OD1       23.3800   34.4200   70.4740 O.co2 128  ASP128     -0.2456
    135  OD2       21.7770   35.5130   69.4530 O.co2 128  ASP128     -0.2456
    136  N         24.7200   28.5590   69.5460 N.3   130  LYS130     -0.1245
    137  CA        24.7550   27.6790   68.3580 C.3   130  LYS130      0.1561
    138  C         26.0350   26.8420   68.3850 C.2   130  LYS130      0.2260
    139  O         26.9980   27.2160   69.0600 O.2   130  LYS130     -0.2867
    140  CB        24.7810   28.4940   67.0660 C.3   130  LYS130      0.0271
    141  CG        23.8050   29.6270   66.9240 C.3   130  LYS130      0.0035
    142  CD        24.0810   30.2790   65.5900 C.3   130  LYS130      0.0206
    143  CE        24.1120   31.7730   65.6720 C.3   130  LYS130      0.1093
    144  NZ        24.9510   32.3100   66.7890 N.3   130  LYS130     -0.1314
    145  N         28.5190   26.7210   66.3800 N.3   132  GLU132     -0.1231
    146  CA        29.6950   27.4970   65.9660 C.3   132  GLU132      0.1699
    147  C         30.2480   28.3420   67.1180 C.2   132  GLU132      0.2592
    148  O         31.3760   28.8240   67.0520 O.2   132  GLU132     -0.2718
    149  CB        29.3920   28.3880   64.7510 C.3   132  GLU132      0.0402
    150  CG        28.2530   29.3790   64.9490 C.3   132  GLU132      0.1161
    151  CD        28.3350   30.6020   64.0610 C.2   132  GLU132      0.3649
    152  OE1       27.6900   31.6100   64.4170 O.co2 132  GLU132     -0.2457
    153  OE2       29.0250   30.5880   63.0150 O.co2 132  GLU132     -0.2457
    154  N         29.4380   28.5160   68.1610 N.am  133  ASN133     -0.1974
    155  CA        29.8070   29.3480   69.3060 C.3   133  ASN133      0.1688
    156  C         30.4630   28.5520   70.4230 C.2   133  ASN133      0.2292
    157  O         30.8520   29.1150   71.4490 O.2   133  ASN133     -0.2864
    158  CB        28.5780   30.0930   69.8350 C.3   133  ASN133      0.1181
    159  CG        27.8700   30.9000   68.7540 C.2   133  ASN133      0.2629
    160  OD1       26.6500   30.8180   68.6140 O.2   133  ASN133     -0.2716
    161  ND2       28.6330   31.6720   67.9720 N.am  133  ASN133     -0.0877
    162  N         33.5120   26.2700   71.4260 N.3   135  LEU135     -0.1245
    163  CA        34.8630   25.8690   71.0450 C.3   135  LEU135      0.1561
    164  C         35.4930   25.1130   72.1880 C.2   135  LEU135      0.2260
    165  O         34.9630   25.1090   73.2990 O.2   135  LEU135     -0.2867
    166  CB        35.7370   27.0820   70.7030 C.3   135  LEU135      0.0270
    167  CG        35.2320   28.1610   69.7400 C.3   135  LEU135      0.0019
    168  CD1       36.3540   29.1310   69.4030 C.3   135  LEU135      0.0001
    169  CD2       34.6620   27.5500   68.4700 C.3   135  LEU135      0.0001
    170  N         31.8560   31.7500   72.6020 N.3   145  THR145     -0.1203
    171  CA        32.4460   32.8460   71.8220 C.3   145  THR145      0.1994
    172  C         31.8180   34.2200   72.0540 C.2   145  THR145      0.2617
    173  O         32.4040   35.2320   71.6740 O.2   145  THR145     -0.2717
    174  CB        32.4250   32.5480   70.2910 C.3   145  THR145      0.1784
    175  OG1       31.0750   32.3420   69.8710 O.3   145  THR145     -0.2211
    176  CG2       33.2430   31.3090   69.9540 C.3   145  THR145      0.0376
    177  N         30.6290   34.2680   72.6510 N.am  146  ASP146     -0.1973
    178  CA        30.0130   35.5680   72.9280 C.3   146  ASP146      0.1709
    179  C         30.7550   36.2590   74.0660 C.2   146  ASP146      0.2293
    180  O         31.0710   35.6330   75.0770 O.2   146  ASP146     -0.2864
    181  CB        28.5210   35.4520   73.2620 C.3   146  ASP146      0.1436
    182  CG        27.8440   36.8110   73.3600 C.2   146  ASP146      0.3671
    183  OD1       27.9680   37.4760   74.4120 O.co2 146  ASP146     -0.2456
    184  OD2       27.2010   37.2290   72.3790 O.co2 146  ASP146     -0.2456
    185  N         23.7790   42.8180   70.7240 N.3   151  LYS151     -0.1245
    186  CA        23.3420   42.4750   69.3710 C.3   151  LYS151      0.1561
    187  C         22.0620   43.1880   68.9360 C.2   151  LYS151      0.2260
    188  O         21.8960   43.5110   67.7580 O.2   151  LYS151     -0.2867
    189  CB        23.1630   40.9580   69.2530 C.3   151  LYS151      0.0271
    190  CG        24.4660   40.1620   69.3620 C.3   151  LYS151      0.0035
    191  CD        24.2230   38.6850   69.6850 C.3   151  LYS151      0.0206
    192  CE        23.8920   38.4880   71.1660 C.3   151  LYS151      0.1093
    193  NZ        24.0390   37.0760   71.6110 N.3   151  LYS151     -0.1314
@<TRIPOS>BOND
     1    21    20    1
     2    20    19    1
     3    19    18    1
     4    18    17    1
     5    17    14    1
     6    14    13    1
     7    14    15    1
     8    13    11   am
     9    15    16    2
    10    15    22   am
    11    11    10    1
    12    11    12    2
    13    10     9    1
    14     1     2    1
    15     4     3    2
    16    25    24    2
    17    22    23    1
    18     9     3   am
    19     3     2    1
    20     2     5    1
    21    24    23    1
    22    24    26   am
    23    29    28    2
    24    27    26    1
    25    27    28    1
    26    27    30    1
    27    46    45    2
    28    31    30    1
    29    28    32   am
    30    43    44    1
    31    45    44    1
    32     5     6    1
    33     5     7    1
    34   153   151   ar
    35    32    33    1
    36    44    47    1
    37   115   113   ar
    38     6     8    1
    39   114   113   ar
    40    34    33    1
    41    34    35    2
    42    33    36    1
    43   113   112    1
    44   151   152   ar
    45   151   150    1
    46    47    49    1
    47    47    48    1
    48   149   150    1
    49   149   146    1
    50    36    37    1
    51    63    62    1
    52    98    97    1
    53    38    37   ar
    54    38    40   ar
    55    57    56    1
    56    57    58    2
    57    37    39   ar
    58   112   111    1
    59   142   143    1
    60   142   141    1
    61    40    42   ar
    62   143   144    1
    63    39    41   ar
    64    42    41   ar
    65   146   145    1
    66   146   147    1
    67    56    55    1
    68    56    59    1
    69   111   108    1
    70    60    59    1
    71    60    61    1
    72    62    61    1
    73    97    95   ar
    74    97    96   ar
    75    95    93   ar
    76   141   140    1
    77   107   108    1
    78   148   147    2
    79   140   137    1
    80   147   154   am
    81    96    94   ar
    82   108   109    1
    83   110   109    2
    84    93    92   ar
    85   188   187    2
    86    51    52    1
    87    51    54    1
    88    51    50    1
    89    52    53    2
    90   161   159   am
    91   154   155    1
    92    94    92   ar
    93   137   138    1
    94   137   136    1
    95   138   139    2
    96    92    91    1
    97   169   167    1
    98   160   159    2
    99   159   158    1
   100   102   101    2
   101   187   186    1
   102   189   190    1
   103   189   186    1
   104   155   158    1
   105   155   156    1
   106   190   191    1
   107   186   185    1
   108   168   167    1
   109   135   133   ar
   110    91    88    1
   111   132   133    1
   112   132   129    1
   113   191   192    1
   114   167   166    1
   115   133   134   ar
   116   175   174    1
   117   101   100    1
   118   131   130    2
   119   176   174    1
   120    77    76    1
   121   174   171    1
   122    88    89    1
   123    88    87    1
   124   156   157    2
   125    99    89   am
   126    99   100    1
   127   166   163    1
   128   129   130    1
   129   129   128    1
   130    89    90    2
   131   163   162    1
   132   163   164    1
   133   100   103    1
   134   192   193    1
   135    76    75    1
   136    76    78    1
   137   103   105    1
   138   103   104    1
   139    87    81   am
   140    71    72    1
   141    75    72    1
   142    82    81    2
   143   173   172    2
   144    74    73    2
   145   171   172    1
   146   171   170    1
   147   172   177   am
   148    81    80    1
   149   164   165    2
   150    72    73    1
   151   184   182   ar
   152   104   106    1
   153    73    79   am
   154   177   178    1
   155   178   181    1
   156   178   179    1
   157   127   126    1
   158   181   182    1
   159   125   126   ar
   160   125   123   ar
   161   182   183   ar
   162    79    80    1
   163    80    83    1
   164    70    68    1
   165   126   124   ar
   166    69    68    1
   167   119   118    2
   168   179   180    2
   169   123   121   ar
   170    68    65    1
   171    83    84    1
   172   118   117    1
   173   124   122   ar
   174   121   122   ar
   175   121   120    1
   176    65    64    1
   177    65    66    1
   178    84    85   ar
   179    84    86   ar
   180   117   120    1
   181   117   116    1
   182    66    67    2
