@<TRIPOS>MOLECULE
tmp/2r5vA00.pdb
 144 135 0 0 0
SMALL
GASTEIGER

@<TRIPOS>ATOM
      1  N        -19.7040   44.6620   41.7140 N.3   159  HIS159     -0.1241
      2  CA       -18.4410   44.0240   42.0730 C.3   159  HIS159      0.1621
      3  C        -17.4700   44.1730   40.9200 C.2   159  HIS159      0.2264
      4  O        -17.8930   44.5750   39.8390 O.2   159  HIS159     -0.2867
      5  CB       -18.6400   42.5350   42.4370 C.3   159  HIS159      0.0745
      6  CG       -19.1550   41.6900   41.3120 C.ar  159  HIS159      0.0817
      7  ND1      -20.5000   41.5920   40.9950 N.ar  159  HIS159     -0.2268
      8  CD2      -18.4990   40.9520   40.3960 C.ar  159  HIS159      0.1154
      9  CE1      -20.6450   40.7790   39.9680 C.ar  159  HIS159      0.1986
     10  NE2      -19.4420   40.3820   39.5830 N.ar  159  HIS159     -0.2212
     11  N        -17.7580   34.2210   49.9900 N.3   186  PHE186     -0.1241
     12  CA       -18.2240   33.2900   48.9980 C.3   186  PHE186      0.1605
     13  C        -16.9960   32.7140   48.3710 C.2   186  PHE186      0.2264
     14  O        -15.9370   33.3380   48.4110 O.2   186  PHE186     -0.2867
     15  CB       -19.1780   33.9880   47.9580 C.3   186  PHE186      0.0534
     16  CG       -19.8440   33.0310   46.9710 C.ar  186  PHE186     -0.0203
     17  CD1      -19.2200   32.6910   45.7650 C.ar  186  PHE186     -0.0042
     18  CD2      -21.0970   32.5060   47.2300 C.ar  186  PHE186     -0.0042
     19  CE1      -19.8450   31.8490   44.8360 C.ar  186  PHE186     -0.0003
     20  CE2      -21.7440   31.6750   46.3020 C.ar  186  PHE186     -0.0003
     21  CZ       -21.1060   31.3250   45.1130 C.ar  186  PHE186     -0.0000
     22  N        -15.9490   29.3440   45.2190 N.3   188  GLU188     -0.1245
     23  CA       -16.5150   28.5370   44.1640 C.3   188  GLU188      0.1567
     24  C        -15.4170   28.0010   43.3220 C.2   188  GLU188      0.2260
     25  O        -14.5890   28.7740   42.7410 O.2   188  GLU188     -0.2867
     26  CB       -17.4820   29.3700   43.2950 C.3   188  GLU188      0.0388
     27  CG       -18.2360   28.5700   42.2370 C.3   188  GLU188      0.1160
     28  CD       -19.1990   27.5970   42.8650 C.2   188  GLU188      0.3649
     29  OE1      -19.7010   27.8740   43.9680 O.co2 188  GLU188     -0.2457
     30  OE2      -19.4500   26.5350   42.2780 O.co2 188  GLU188     -0.2457
     31  N        -14.8400   26.4710   39.8810 N.3   190  ILE190     -0.1245
     32  CA       -15.6120   26.5910   38.6160 C.3   190  ILE190      0.1561
     33  C        -15.0330   25.5950   37.6200 C.2   190  ILE190      0.2260
     34  O        -13.8380   25.4800   37.5120 O.2   190  ILE190     -0.2867
     35  CB       -15.5420   28.0350   37.9990 C.3   190  ILE190      0.0252
     36  CG1      -15.6680   29.1390   39.0750 C.3   190  ILE190      0.0019
     37  CG2      -16.5480   28.2030   36.8610 C.3   190  ILE190      0.0019
     38  CD1      -15.0330   30.4680   38.6140 C.3   190  ILE190      0.0001
     39  N        -11.9950   30.2770   42.9280 N.3   199  SER199     -0.1217
     40  CA       -12.4300   31.6480   43.1380 C.3   199  SER199      0.1889
     41  C        -12.8540   31.8650   44.5790 C.2   199  SER199      0.2288
     42  O        -13.3970   30.9450   45.2020 O.2   199  SER199     -0.2866
     43  CB       -13.5980   31.9810   42.1770 C.3   199  SER199      0.2089
     44  OG       -14.8450   31.5250   42.6550 O.3   199  SER199     -0.2183
     45  N        -14.5810   35.3050   46.9320 N.3   201  VAL201     -0.1245
     46  CA       -15.0540   36.6810   46.9740 C.3   201  VAL201      0.1561
     47  C        -14.6990   37.3180   48.3150 C.2   201  VAL201      0.2260
     48  O        -15.0660   36.7870   49.3340 O.2   201  VAL201     -0.2867
     49  CB       -16.5830   36.7200   46.7240 C.3   201  VAL201      0.0252
     50  CG1      -17.0900   38.1690   46.6220 C.3   201  VAL201      0.0019
     51  CG2      -16.8320   35.9830   45.4140 C.3   201  VAL201      0.0019
     52  N        -14.5010   39.6070   43.1500 N.3   212  THR212     -0.1218
     53  CA       -14.5480   38.2300   42.8980 C.3   212  THR212      0.1862
     54  C        -13.2370   37.8240   42.2850 C.2   212  THR212      0.2287
     55  O        -12.9480   38.0860   41.1150 O.2   212  THR212     -0.2866
     56  CB       -15.8390   37.8050   42.1170 C.3   212  THR212      0.1770
     57  OG1      -15.7120   38.2090   40.7590 O.3   212  THR212     -0.2211
     58  CG2      -17.0690   38.5360   42.6820 C.3   212  THR212      0.0375
     59  N        -10.2730   35.2970   40.9720 N.3   214  ILE214     -0.1245
     60  CA       -10.3050   34.0480   40.2370 C.3   214  ILE214      0.1561
     61  C         -8.8660   33.6920   39.8180 C.2   214  ILE214      0.2260
     62  O         -8.1460   34.5230   39.3330 O.2   214  ILE214     -0.2867
     63  CB       -11.2230   34.1670   38.9550 C.3   214  ILE214      0.0252
     64  CG1      -12.5030   34.9380   39.2520 C.3   214  ILE214      0.0019
     65  CG2      -11.5770   32.7960   38.4060 C.3   214  ILE214      0.0019
     66  CD1      -13.4170   35.3500   37.9500 C.3   214  ILE214      0.0001
     67  N        -13.8030   41.9490   34.6520 N.3   239  HIS239     -0.1241
     68  CA       -15.0680   42.6430   34.3890 C.3   239  HIS239      0.1621
     69  C        -15.5030   43.4630   35.5560 C.2   239  HIS239      0.2264
     70  O        -15.1100   43.1980   36.6650 O.2   239  HIS239     -0.2867
     71  CB       -16.2170   41.7170   33.9090 C.3   239  HIS239      0.0745
     72  CG       -16.6520   40.6630   34.8930 C.ar  239  HIS239      0.0817
     73  ND1      -16.1180   39.3920   34.9000 N.ar  239  HIS239     -0.2268
     74  CD2      -17.6310   40.6560   35.8340 C.ar  239  HIS239      0.1154
     75  CE1      -16.7410   38.6500   35.7970 C.ar  239  HIS239      0.1986
     76  NE2      -17.6600   39.3950   36.3750 N.ar  239  HIS239     -0.2212
     77  N        -27.9880   37.8140   36.0060 N.3   303  GLN303     -0.1245
     78  CA       -26.7250   38.3490   35.5100 C.3   303  GLN303      0.1566
     79  C        -26.5520   38.1180   33.9950 C.2   303  GLN303      0.2260
     80  O        -27.0210   37.1260   33.4690 O.2   303  GLN303     -0.2867
     81  CB       -25.5360   37.6720   36.2120 C.3   303  GLN303      0.0367
     82  CG       -25.4400   37.8730   37.7290 C.3   303  GLN303      0.0905
     83  CD       -24.4280   36.9540   38.3350 C.2   303  GLN303      0.2608
     84  OE1      -24.7450   35.8370   38.6880 O.2   303  GLN303     -0.2717
     85  NE2      -23.1830   37.3640   38.3480 N.am  303  GLN303     -0.0878
     86  N        -23.1230   38.8400   30.9440 N.3   305  PHE305     -0.1241
     87  CA       -21.8820   39.3710   30.4280 C.3   305  PHE305      0.1605
     88  C        -22.0430   39.9980   29.0110 C.2   305  PHE305      0.2264
     89  O        -22.8010   39.4660   28.1410 O.2   305  PHE305     -0.2867
     90  CB       -20.8600   38.2510   30.2400 C.3   305  PHE305      0.0534
     91  CG       -20.2200   37.7570   31.5240 C.ar  305  PHE305     -0.0203
     92  CD1      -20.4710   38.3920   32.7780 C.ar  305  PHE305     -0.0042
     93  CD2      -19.3420   36.6790   31.4750 C.ar  305  PHE305     -0.0042
     94  CE1      -19.8440   37.9060   33.9540 C.ar  305  PHE305     -0.0003
     95  CE2      -18.7040   36.1890   32.6790 C.ar  305  PHE305     -0.0003
     96  CZ       -18.9710   36.8070   33.9000 C.ar  305  PHE305     -0.0000
     97  N        -20.7560   43.6030   32.9960 N.3   318  GLU318     -0.1245
     98  CA       -21.8040   42.6710   33.3880 C.3   318  GLU318      0.1567
     99  C        -22.9500   43.5240   33.8410 C.2   318  GLU318      0.2260
    100  O        -22.7210   44.5660   34.4570 O.2   318  GLU318     -0.2867
    101  CB       -21.3200   41.7830   34.5360 C.3   318  GLU318      0.0388
    102  CG       -22.4720   41.2400   35.4610 C.3   318  GLU318      0.1160
    103  CD       -21.9790   40.3160   36.5700 C.2   318  GLU318      0.3649
    104  OE1      -20.7500   40.0860   36.6380 O.co2 318  GLU318     -0.2457
    105  OE2      -22.8210   39.8490   37.3980 O.co2 318  GLU318     -0.2457
    106  N        -23.6120   35.2280   45.2690 N.3   328  PHE328     -0.1241
    107  CA       -23.5820   34.6830   43.9210 C.3   328  PHE328      0.1605
    108  C        -24.1900   33.2710   43.8820 C.2   328  PHE328      0.2264
    109  O        -24.7360   32.8000   44.8950 O.2   328  PHE328     -0.2867
    110  CB       -22.1300   34.7080   43.4020 C.3   328  PHE328      0.0534
    111  CG       -21.5720   36.1330   43.3800 C.ar  328  PHE328     -0.0203
    112  CD1      -21.9150   36.9980   42.3450 C.ar  328  PHE328     -0.0042
    113  CD2      -20.8950   36.6480   44.4760 C.ar  328  PHE328     -0.0042
    114  CE1      -21.5070   38.3200   42.3420 C.ar  328  PHE328     -0.0003
    115  CE2      -20.4910   38.0140   44.4950 C.ar  328  PHE328     -0.0003
    116  CZ       -20.7900   38.8420   43.4240 C.ar  328  PHE328     -0.0000
    117  N        -22.6370   31.2530   37.6450 N.3   333  ILE333     -0.1245
    118  CA       -21.2110   31.3740   37.4110 C.3   333  ILE333      0.1561
    119  C        -20.7680   30.3690   36.3740 C.2   333  ILE333      0.2260
    120  O        -19.8780   30.6600   35.5390 O.2   333  ILE333     -0.2867
    121  CB       -20.3530   31.1220   38.7230 C.3   333  ILE333      0.0252
    122  CG1      -20.7430   32.1380   39.8090 C.3   333  ILE333      0.0019
    123  CG2      -18.8640   31.1370   38.3770 C.3   333  ILE333      0.0019
    124  CD1      -19.9910   31.9760   41.1460 C.3   333  ILE333      0.0001
    125  N        -22.0110   31.6730   32.9970 N.3   336  LEU336     -0.1231
    126  CA       -21.4270   32.9190   32.5660 C.3   336  LEU336      0.1693
    127  C        -20.1510   32.5470   31.8740 C.2   336  LEU336      0.2592
    128  O        -19.8810   32.9990   30.7480 O.2   336  LEU336     -0.2718
    129  CB       -21.2060   33.8740   33.7400 C.3   336  LEU336      0.0284
    130  CG       -22.5000   34.5330   34.2370 C.3   336  LEU336      0.0019
    131  CD1      -22.3600   35.0870   35.6350 C.3   336  LEU336      0.0001
    132  CD2      -22.9410   35.6440   33.2800 C.3   336  LEU336      0.0001
    133  N        -19.3820   31.6850   32.4990 N.am  337  TYR337     -0.1976
    134  CA       -18.1250   31.2680   31.9270 C.3   337  TYR337      0.1639
    135  C        -18.2750   30.3100   30.7310 C.2   337  TYR337      0.2290
    136  O        -17.3820   30.2170   29.8580 O.2   337  TYR337     -0.2864
    137  CB       -17.1110   30.8550   33.0090 C.3   337  TYR337      0.0560
    138  CG       -16.7200   32.1600   33.7730 C.ar  337  TYR337     -0.0198
    139  CD1      -17.3040   32.4850   35.0310 C.ar  337  TYR337     -0.0009
    140  CD2      -15.8500   33.1130   33.1840 C.ar  337  TYR337     -0.0009
    141  CE1      -16.9990   33.6490   35.6760 C.ar  337  TYR337      0.0417
    142  CE2      -15.5300   34.3070   33.8500 C.ar  337  TYR337      0.0417
    143  CZ       -16.0940   34.5900   35.1010 C.ar  337  TYR337      0.1957
    144  OH       -15.8100   35.8340   35.7740 O.3   337  TYR337     -0.2866
@<TRIPOS>BOND
     1    89    88    2
     2    88    87    1
     3   136   135    2
     4    90    87    1
     5    90    91    1
     6    87    86    1
     7   135   134    1
     8   128   127    2
     9    93    91   ar
    10    93    95   ar
    11    91    92   ar
    12   127   133   am
    13   127   126    1
    14   134   133    1
    15   134   137    1
    16   126   125    1
    17   126   129    1
    18    95    96   ar
    19    92    94   ar
    20    97    98    1
    21   137   138    1
    22   140   138   ar
    23   140   142   ar
    24   132   130    1
    25    98    99    1
    26    98   101    1
    27    80    79    2
    28   129   130    1
    29   138   139   ar
    30    99   100    2
    31   142   143   ar
    32    96    94   ar
    33    71    68    1
    34    71    72    1
    35    79    78    1
    36   130   131    1
    37    68    67    1
    38    68    69    1
    39   101   102    1
    40    72    73   ar
    41    72    74   ar
    42    73    75   ar
    43   139   141   ar
    44   143   141   ar
    45   143   144    1
    46   102   103    1
    47    78    77    1
    48    78    81    1
    49   120   119    2
    50    69    70    2
    51    75    76   ar
    52    74    76   ar
    53    81    82    1
    54   119   118    1
    55   103   104   ar
    56   103   105   ar
    57    37    35    1
    58   118   117    1
    59   118   121    1
    60    34    33    2
    61    33    32    1
    62    82    83    1
    63    66    64    1
    64    35    32    1
    65    35    36    1
    66    83    85   am
    67    83    84    2
    68   123   121    1
    69    65    63    1
    70    38    36    1
    71    32    31    1
    72   121   122    1
    73    63    64    1
    74    63    60    1
    75    62    61    2
    76    10     9   ar
    77    10     8   ar
    78   122   124    1
    79    61    60    1
    80     4     3    2
    81     9     7   ar
    82    60    59    1
    83     8     6   ar
    84    57    56    1
    85     3     2    1
    86     7     6   ar
    87    55    54    2
    88     6     5    1
    89     1     2    1
    90     2     5    1
    91    56    58    1
    92    56    53    1
    93    43    44    1
    94    43    40    1
    95    27    28    1
    96    27    26    1
    97    30    28   ar
    98    54    53    1
    99   114   112   ar
   100   114   116   ar
   101   112   111   ar
   102    25    24    2
   103    28    29   ar
   104    53    52    1
   105    39    40    1
   106    40    41    1
   107    26    23    1
   108    24    23    1
   109   111   110    1
   110   111   113   ar
   111   110   107    1
   112   116   115   ar
   113   108   107    1
   114   108   109    2
   115   107   106    1
   116    23    22    1
   117   113   115   ar
   118    41    42    2
   119    19    21   ar
   120    19    17   ar
   121    21    20   ar
   122    51    49    1
   123    17    16   ar
   124    20    18   ar
   125    50    49    1
   126    49    46    1
   127    45    46    1
   128    16    18   ar
   129    16    15    1
   130    46    47    1
   131    15    12    1
   132    47    48    2
   133    13    14    2
   134    13    12    1
   135    12    11    1
