@<TRIPOS>MOLECULE
tmp/2r61A00.pdb
 99 95 0 0 0
SMALL
GASTEIGER

@<TRIPOS>ATOM
      1  N         12.4170  -10.1910   31.8940 N.3   128  LEU128     -0.1245
      2  CA        12.4870   -9.2300   32.9960 C.3   128  LEU128      0.1561
      3  C         11.6130   -7.9930   32.7350 C.2   128  LEU128      0.2260
      4  O         11.1650   -7.3520   33.6990 O.2   128  LEU128     -0.2867
      5  CB        13.9360   -8.8190   33.2990 C.3   128  LEU128      0.0270
      6  CG        14.8680   -9.8980   33.8390 C.3   128  LEU128      0.0019
      7  CD1       16.2390   -9.2960   34.2330 C.3   128  LEU128      0.0001
      8  CD2       14.2200  -10.6530   35.0450 C.3   128  LEU128      0.0001
      9  N         20.4990  -17.0760   42.6170 N.3   163  GLY163     -0.1210
     10  CA        20.7990  -16.0090   41.6600 C.3   163  GLY163      0.1956
     11  C         19.6260  -15.0770   41.7550 C.2   163  GLY163      0.2612
     12  O         18.5210  -15.5150   42.0050 O.2   163  GLY163     -0.2717
     13  N         19.8500  -13.7850   41.5950 N.am  164  TYR164     -0.1962
     14  CA        18.7120  -12.8680   41.6290 C.3   164  TYR164      0.1771
     15  C         18.7630  -11.7310   40.6260 C.2   164  TYR164      0.2620
     16  O         19.7840  -11.5110   39.9640 O.2   164  TYR164     -0.2715
     17  CB        18.5790  -12.2830   43.0060 C.3   164  TYR164      0.0574
     18  CG        19.8150  -11.6030   43.5080 C.ar  164  TYR164     -0.0198
     19  CD1       20.2300  -10.3910   42.9720 C.ar  164  TYR164     -0.0009
     20  CD2       20.5570  -12.1530   44.5350 C.ar  164  TYR164     -0.0009
     21  CE1       21.3750   -9.7500   43.4440 C.ar  164  TYR164      0.0417
     22  CE2       21.6820  -11.5190   45.0090 C.ar  164  TYR164      0.0417
     23  CZ        22.0710  -10.3220   44.4570 C.ar  164  TYR164      0.1957
     24  OH        23.1690   -9.6910   44.9280 O.3   164  TYR164     -0.2866
     25  N         17.6590  -10.9980   40.5550 N.am  165  TYR165     -0.1960
     26  CA        17.4900   -9.8820   39.6260 C.3   165  TYR165      0.1771
     27  C         16.8750   -8.7180   40.3740 C.2   165  TYR165      0.2620
     28  O         15.8610   -8.9090   41.0690 O.2   165  TYR165     -0.2715
     29  CB        16.5870  -10.3150   38.5160 C.3   165  TYR165      0.0574
     30  CG        17.1410  -11.5180   37.7840 C.ar  165  TYR165     -0.0198
     31  CD1       18.0680  -11.3470   36.7180 C.ar  165  TYR165     -0.0009
     32  CD2       16.7540  -12.8110   38.1280 C.ar  165  TYR165     -0.0009
     33  CE1       18.6000  -12.4360   36.0420 C.ar  165  TYR165      0.0417
     34  CE2       17.2690  -13.9100   37.4530 C.ar  165  TYR165      0.0417
     35  CZ        18.1950  -13.7170   36.4100 C.ar  165  TYR165      0.1957
     36  OH        18.7250  -14.7870   35.7310 O.3   165  TYR165     -0.2866
     37  N         17.5140   -7.5380   40.2940 N.am  166  THR166     -0.1951
     38  CA        17.1440   -6.3900   41.1330 C.3   166  THR166      0.1897
     39  C         16.6150   -5.2910   40.2610 C.2   166  THR166      0.2313
     40  O         17.2130   -4.9720   39.2260 O.2   166  THR166     -0.2863
     41  CB        18.3310   -5.7990   41.9240 C.3   166  THR166      0.1794
     42  OG1       18.9500   -6.8100   42.7330 O.3   166  THR166     -0.2208
     43  CG2       17.8420   -4.7020   42.8330 C.3   166  THR166      0.0378
     44  N         15.8910   -1.4900   40.7270 N.3   168  GLU168     -0.1245
     45  CA        15.9710   -0.2430   41.5080 C.3   168  GLU168      0.1567
     46  C         14.8400    0.6460   41.0450 C.2   168  GLU168      0.2260
     47  O         14.7480    0.9540   39.8510 O.2   168  GLU168     -0.2867
     48  CB        17.3250    0.4470   41.3430 C.3   168  GLU168      0.0388
     49  CG        18.4860   -0.4360   41.7460 C.3   168  GLU168      0.1160
     50  CD        19.8390    0.2500   41.6530 C.2   168  GLU168      0.3649
     51  OE1       20.0210    1.2110   40.8560 O.co2 168  GLU168     -0.2457
     52  OE2       20.7410   -0.2030   42.3960 O.co2 168  GLU168     -0.2457
     53  N         14.7120    4.4780   39.2540 N.3   171  LYS171     -0.1245
     54  CA        14.8500    4.6940   37.8110 C.3   171  LYS171      0.1561
     55  C         14.0270    3.6890   36.9660 C.2   171  LYS171      0.2260
     56  O         13.6350    2.5930   37.4420 O.2   171  LYS171     -0.2867
     57  CB        16.3240    4.8640   37.3470 C.3   171  LYS171      0.0271
     58  CG        17.4880    4.2280   38.1600 C.3   171  LYS171      0.0035
     59  CD        18.8020    3.9150   37.2580 C.3   171  LYS171      0.0206
     60  CE        19.5960    2.5450   37.6270 C.3   171  LYS171      0.1093
     61  NZ        20.2950    1.7030   36.4960 N.3   171  LYS171     -0.1314
     62  N         16.4380   -0.1060   32.4860 N.3   174  GLN174     -0.1245
     63  CA        17.2280    0.2610   31.3340 C.3   174  GLN174      0.1566
     64  C         16.7880   -0.6300   30.1460 C.2   174  GLN174      0.2260
     65  O         16.5750   -1.8220   30.3200 O.2   174  GLN174     -0.2867
     66  CB        18.7210    0.1380   31.6650 C.3   174  GLN174      0.0367
     67  CG        19.2700    1.2370   32.5900 C.3   174  GLN174      0.0905
     68  CD        20.8170    1.4240   32.4630 C.2   174  GLN174      0.2608
     69  OE1       21.4170    2.2290   33.1840 O.2   174  GLN174     -0.2717
     70  NE2       21.4530    0.6840   31.5290 N.am  174  GLN174     -0.0878
     71  N         18.2150   -2.2230   27.5740 N.3   176  HIS176     -0.1226
     72  CA        18.9570   -3.4610   27.2910 C.3   176  HIS176      0.1752
     73  C         18.6200   -4.6560   28.2240 C.2   176  HIS176      0.2595
     74  O         19.0040   -5.8030   27.9030 O.2   176  HIS176     -0.2718
     75  CB        20.4680   -3.1900   27.3000 C.3   176  HIS176      0.0759
     76  CG        21.0450   -3.0100   28.6730 C.ar  176  HIS176      0.0818
     77  ND1       21.2810   -1.7690   29.2270 N.ar  176  HIS176     -0.2268
     78  CD2       21.4030   -3.9160   29.6170 C.ar  176  HIS176      0.1154
     79  CE1       21.7590   -1.9180   30.4500 C.ar  176  HIS176      0.1986
     80  NE2       21.8430   -3.2110   30.7110 N.ar  176  HIS176     -0.2212
     81  N         17.9560   -4.3920   29.3670 N.am  177  ARG177     -0.1980
     82  CA        17.5240   -5.4530   30.2980 C.3   177  ARG177      0.1597
     83  C         16.1110   -6.0110   29.9440 C.2   177  ARG177      0.2287
     84  O         15.6560   -7.0420   30.5050 O.2   177  ARG177     -0.2864
     85  CB        17.5550   -4.9760   31.7650 C.3   177  ARG177      0.0334
     86  CG        18.9490   -4.7070   32.3530 C.3   177  ARG177      0.0492
     87  CD        18.9410   -4.2300   33.8650 C.3   177  ARG177      0.2205
     88  NE        18.7400   -5.3670   34.7540 N.pl3 177  ARG177     -0.0865
     89  CZ        18.1440   -5.3470   35.9580 C.cat 177  ARG177      0.5346
     90  NH1       17.6890   -4.2270   36.5230 N.pl3 177  ARG177      0.1354
     91  NH2       18.0170   -6.4860   36.6280 N.pl3 177  ARG177      0.1354
     92  N         16.2490   -9.5180   28.6600 N.3   180  ASP180     -0.1239
     93  CA        16.8030  -10.6010   29.4960 C.3   180  ASP180      0.1674
     94  C         15.6710  -11.5280   29.8720 C.2   180  ASP180      0.2266
     95  O         14.6300  -11.0820   30.3050 O.2   180  ASP180     -0.2867
     96  CB        17.4970  -10.0710   30.7300 C.3   180  ASP180      0.1410
     97  CG        18.7750   -9.3350   30.4120 C.2   180  ASP180      0.3668
     98  OD1       19.4710   -9.6590   29.4210 O.co2 180  ASP180     -0.2456
     99  OD2       19.1100   -8.4060   31.1670 O.co2 180  ASP180     -0.2456
@<TRIPOS>BOND
     1    72    75    1
     2    72    71    1
     3    72    73    1
     4    75    76    1
     5    74    73    2
     6    73    81   am
     7    92    93    1
     8    76    77   ar
     9    76    78   ar
    10    77    79   ar
    11    81    82    1
    12    98    97   ar
    13    93    94    1
    14    93    96    1
    15    78    80   ar
    16    94    95    2
    17    83    82    1
    18    83    84    2
    19    64    65    2
    20    64    63    1
    21    82    85    1
    22    97    96    1
    23    97    99   ar
    24    79    80   ar
    25    63    66    1
    26    63    62    1
    27    70    68   am
    28    66    67    1
    29    85    86    1
    30     1     2    1
    31    86    87    1
    32    68    67    1
    33    68    69    2
    34     3     2    1
    35     3     4    2
    36     2     5    1
    37     5     6    1
    38     6     7    1
    39     6     8    1
    40    87    88    1
    41    88    89    2
    42    36    35    1
    43    89    90    1
    44    89    91    1
    45    33    35   ar
    46    33    31   ar
    47    35    34   ar
    48    61    60    1
    49    31    30   ar
    50    55    56    2
    51    55    54    1
    52    59    60    1
    53    59    58    1
    54    57    54    1
    55    57    58    1
    56    34    32   ar
    57    30    32   ar
    58    30    29    1
    59    54    53    1
    60    29    26    1
    61    40    39    2
    62    26    27    1
    63    26    25    1
    64    47    46    2
    65    16    15    2
    66    39    38    1
    67    37    27   am
    68    37    38    1
    69    27    28    2
    70    25    15   am
    71    15    14    1
    72    44    45    1
    73    51    50   ar
    74    46    45    1
    75    38    41    1
    76    48    45    1
    77    48    49    1
    78    13    14    1
    79    13    11   am
    80    14    17    1
    81    50    49    1
    82    50    52   ar
    83    10    11    1
    84    10     9    1
    85    11    12    2
    86    41    42    1
    87    41    43    1
    88    19    21   ar
    89    19    18   ar
    90    17    18    1
    91    21    23   ar
    92    18    20   ar
    93    23    24    1
    94    23    22   ar
    95    20    22   ar
