@<TRIPOS>MOLECULE
tmp/2r64A00.pdb
 200 192 0 0 0
SMALL
GASTEIGER

@<TRIPOS>ATOM
      1  N         27.5160   24.6090   38.5780 N.3     8  GLU8       -0.1231
      2  CA        27.1590   23.3950   37.8540 C.3     8  GLU8        0.1699
      3  C         27.6360   23.4410   36.4300 C.2     8  GLU8        0.2592
      4  O         27.9490   24.4980   35.8910 O.2     8  GLU8       -0.2718
      5  CB        25.6520   23.1400   37.8670 C.3     8  GLU8        0.0402
      6  CG        24.8100   24.2940   37.3960 C.3     8  GLU8        0.1161
      7  CD        23.3290   24.0270   37.5910 C.2     8  GLU8        0.3649
      8  OE1       22.9690   23.3820   38.6050 O.co2   8  GLU8       -0.2457
      9  OE2       22.5270   24.4720   36.7410 O.co2   8  GLU8       -0.2457
     10  N         27.6790   22.2680   35.8230 N.am    9  LYS9       -0.1966
     11  CA        28.1440   22.1160   34.4590 C.3     9  LYS9        0.1728
     12  C         27.0490   22.3980   33.4450 C.2     9  LYS9        0.2616
     13  O         26.1030   21.6290   33.3060 O.2     9  LYS9       -0.2715
     14  CB        28.6810   20.7010   34.2850 C.3     9  LYS9        0.0311
     15  CG        29.2680   20.4050   32.9350 C.3     9  LYS9        0.0038
     16  CD        29.9330   19.0420   32.9520 C.3     9  LYS9        0.0206
     17  CE        30.4720   18.6790   31.5850 C.3     9  LYS9        0.1093
     18  NZ        29.3880   18.5330   30.5810 N.3     9  LYS9       -0.1314
     19  N         27.1760   23.5150   32.7390 N.am   10  ILE10      -0.1963
     20  CA        26.1890   23.8780   31.7360 C.3    10  ILE10       0.1730
     21  C         26.2370   22.8230   30.6440 C.2    10  ILE10       0.2656
     22  O         25.2130   22.2510   30.2700 O.2    10  ILE10      -0.2711
     23  CB        26.4920   25.2460   31.1020 C.3    10  ILE10       0.0290
     24  CG1       26.3840   26.3570   32.1430 C.3    10  ILE10       0.0022
     25  CG2       25.5440   25.5010   29.9490 C.3    10  ILE10       0.0023
     26  CD1       25.0460   26.4520   32.8110 C.3    10  ILE10       0.0001
     27  N         27.4370   22.5630   30.1340 N.am   11  GLY11      -0.1716
     28  CA        27.5880   21.5620   29.0930 C.2    11  GLY11       0.1480
     29  C         28.9210   21.5680   28.3620 C.2    11  GLY11       0.2820
     30  O         29.7270   22.4990   28.4860 O.2    11  GLY11      -0.2669
     31  N         29.1520   20.5080   27.5930 N.am   12  GLU12      -0.1929
     32  CA        30.3810   20.3700   26.8240 C.3    12  GLU12       0.1736
     33  C         30.3790   21.3810   25.6860 C.2    12  GLU12       0.2617
     34  O         29.7060   21.1880   24.6720 O.2    12  GLU12      -0.2715
     35  CB        30.5000   18.9530   26.2520 C.3    12  GLU12       0.0429
     36  CG        30.6800   17.8520   27.2910 C.3    12  GLU12       0.1163
     37  CD        31.9560   18.0120   28.0950 C.2    12  GLU12       0.3649
     38  OE1       33.0310   18.1870   27.4810 O.co2  12  GLU12      -0.2457
     39  OE2       31.8860   17.9540   29.3400 O.co2  12  GLU12      -0.2457
     40  N         31.1290   22.4640   25.8640 N.am   13  GLY13      -0.1940
     41  CA        31.2100   23.4860   24.8360 C.3    13  GLY13       0.2014
     42  C         32.0010   22.9860   23.6430 C.2    13  GLY13       0.2639
     43  O         32.4750   21.8410   23.6230 O.2    13  GLY13      -0.2714
     44  N         32.1490   23.8400   22.6390 N.am   14  THR14      -0.1950
     45  CA        32.8880   23.4680   21.4420 C.3    14  THR14       0.1897
     46  C         34.3990   23.4990   21.6840 C.2    14  THR14       0.2313
     47  O         35.1490   22.7210   21.0850 O.2    14  THR14      -0.2863
     48  CB        32.5340   24.4130   20.2710 C.3    14  THR14       0.1794
     49  OG1       32.6550   25.7750   20.7050 O.3    14  THR14      -0.2208
     50  CG2       31.1020   24.1660   19.7950 C.3    14  THR14       0.0378
     51  N         31.7770   24.1850   29.8470 N.3    18  VAL18      -0.1245
     52  CA        31.1950   25.4530   30.2630 C.3    18  VAL18       0.1561
     53  C         30.4080   25.3010   31.5440 C.2    18  VAL18       0.2260
     54  O         29.4690   24.5260   31.6160 O.2    18  VAL18      -0.2867
     55  CB        30.2740   26.0100   29.1900 C.3    18  VAL18       0.0252
     56  CG1       29.7720   27.3870   29.6080 C.3    18  VAL18       0.0019
     57  CG2       31.0220   26.0910   27.8820 C.3    18  VAL18       0.0019
     58  N         28.2870   27.0810   34.9930 N.3    20  LYS20      -0.1245
     59  CA        27.5130   28.2140   35.4780 C.3    20  LYS20       0.1561
     60  C         28.3220   28.4830   36.7380 C.2    20  LYS20       0.2260
     61  O         28.6200   27.5440   37.4700 O.2    20  LYS20      -0.2867
     62  CB        26.0920   27.7970   35.8640 C.3    20  LYS20       0.0271
     63  CG        25.2530   28.9250   36.5200 C.3    20  LYS20       0.0035
     64  CD        23.8090   28.4460   36.7620 C.3    20  LYS20       0.0206
     65  CE        22.8920   29.5810   37.1870 C.3    20  LYS20       0.1093
     66  NZ        21.5120   29.0960   37.4790 N.3    20  LYS20      -0.1314
     67  N         28.8240   32.5750   33.1250 N.3    31  ALA31      -0.1245
     68  CA        29.0530   31.3060   32.4510 C.3    31  ALA31       0.1562
     69  C         30.5590   31.2360   32.2790 C.2    31  ALA31       0.2260
     70  O         31.1720   32.1660   31.7630 O.2    31  ALA31      -0.2867
     71  CB        28.3560   31.2860   31.0950 C.3    31  ALA31       0.0290
     72  N         33.7990   29.3540   30.6560 N.3    33  LYS33      -0.1245
     73  CA        34.2120   28.4510   29.5960 C.3    33  LYS33       0.1561
     74  C         35.6900   28.1530   29.8180 C.2    33  LYS33       0.2260
     75  O         36.5300   29.0430   29.7300 O.2    33  LYS33      -0.2867
     76  CB        34.0020   29.0880   28.2120 C.3    33  LYS33       0.0271
     77  CG        34.3520   28.1570   27.0420 C.3    33  LYS33       0.0035
     78  CD        34.0230   28.7990   25.7040 C.3    33  LYS33       0.0206
     79  CE        34.1250   27.8010   24.5570 C.3    33  LYS33       0.1093
     80  NZ        33.1300   26.6890   24.6940 N.3    33  LYS33      -0.1314
     81  N         26.2750   37.8160   23.2370 N.3    56  VAL56      -0.1245
     82  CA        26.5550   37.4520   24.6090 C.3    56  VAL56       0.1561
     83  C         27.8500   38.1460   25.0220 C.2    56  VAL56       0.2260
     84  O         28.9240   37.8720   24.4820 O.2    56  VAL56      -0.2867
     85  CB        26.7160   35.9200   24.7630 C.3    56  VAL56       0.0252
     86  CG1       27.2110   35.5840   26.1570 C.3    56  VAL56       0.0019
     87  CG2       25.3820   35.2430   24.5450 C.3    56  VAL56       0.0019
     88  N         31.5220   34.6730   30.5120 N.3    72  PHE72      -0.1227
     89  CA        30.4390   35.2810   29.7390 C.3    72  PHE72       0.1736
     90  C         29.2400   35.5810   30.6130 C.2    72  PHE72       0.2595
     91  O         29.1110   35.0180   31.6980 O.2    72  PHE72      -0.2718
     92  CB        29.9840   34.3320   28.6280 C.3    72  PHE72       0.0547
     93  CG        31.0120   34.0920   27.5720 C.ar   72  PHE72      -0.0202
     94  CD1       31.2650   35.0590   26.6020 C.ar   72  PHE72      -0.0042
     95  CD2       31.7060   32.8880   27.5250 C.ar   72  PHE72      -0.0042
     96  CE1       32.1950   34.8340   25.5890 C.ar   72  PHE72      -0.0003
     97  CE2       32.6410   32.6400   26.5180 C.ar   72  PHE72      -0.0003
     98  CZ        32.8890   33.6150   25.5440 C.ar   72  PHE72      -0.0000
     99  N         28.3680   36.4690   30.1390 N.am   73  GLU73      -0.1965
    100  CA        27.1550   36.7670   30.8810 C.3    73  GLU73       0.1733
    101  C         26.3870   35.4670   30.7430 C.2    73  GLU73       0.2616
    102  O         26.5490   34.7570   29.7610 O.2    73  GLU73      -0.2715
    103  CB        26.3520   37.9320   30.2510 C.3    73  GLU73       0.0429
    104  CG        25.8600   37.6910   28.8410 C.3    73  GLU73       0.1163
    105  CD        24.8290   38.7240   28.3610 C.2    73  GLU73       0.3649
    106  OE1       23.7510   38.8370   28.9800 O.co2  73  GLU73      -0.2457
    107  OE2       25.0890   39.4160   27.3530 O.co2  73  GLU73      -0.2457
    108  N         25.5430   35.1670   31.7110 N.am   74  PHE74      -0.1960
    109  CA        24.7690   33.9300   31.7190 C.3    74  PHE74       0.1771
    110  C         23.3250   34.1490   31.2820 C.2    74  PHE74       0.2619
    111  O         22.6800   35.1130   31.7000 O.2    74  PHE74      -0.2715
    112  CB        24.7860   33.3610   33.1470 C.3    74  PHE74       0.0574
    113  CG        23.9010   32.1680   33.3550 C.ar   74  PHE74      -0.0200
    114  CD1       24.3820   30.8880   33.1340 C.ar   74  PHE74      -0.0042
    115  CD2       22.5840   32.3300   33.7780 C.ar   74  PHE74      -0.0042
    116  CE1       23.5710   29.7810   33.3310 C.ar   74  PHE74      -0.0003
    117  CE2       21.7530   31.2190   33.9820 C.ar   74  PHE74      -0.0003
    118  CZ        22.2470   29.9440   33.7590 C.ar   74  PHE74      -0.0000
    119  N         22.8340   33.2600   30.4190 N.am   75  LEU75      -0.1963
    120  CA        21.4340   33.2930   29.9930 C.3    75  LEU75       0.1728
    121  C         20.9100   31.9070   30.3890 C.2    75  LEU75       0.2616
    122  O         21.6540   30.9220   30.3200 O.2    75  LEU75      -0.2715
    123  CB        21.3010   33.5380   28.4880 C.3    75  LEU75       0.0311
    124  CG        21.3960   35.0360   28.1620 C.3    75  LEU75       0.0022
    125  CD1       22.8590   35.4050   28.0300 C.3    75  LEU75       0.0001
    126  CD2       20.6640   35.3640   26.8640 C.3    75  LEU75       0.0001
    127  N         19.6500   31.8150   30.7960 N.am   76  HIS76      -0.1959
    128  CA        19.1300   30.5310   31.2620 C.3    76  HIS76       0.1787
    129  C         18.8050   29.4490   30.2550 C.2    76  HIS76       0.2620
    130  O         18.7440   28.2910   30.6230 O.2    76  HIS76      -0.2715
    131  CB        17.9110   30.7430   32.1600 C.3    76  HIS76       0.0785
    132  CG        18.2350   31.3890   33.4690 C.ar   76  HIS76       0.0821
    133  ND1       18.5590   32.7250   33.5800 N.ar   76  HIS76      -0.2267
    134  CD2       18.3050   30.8770   34.7210 C.ar   76  HIS76       0.1154
    135  CE1       18.8130   33.0090   34.8450 C.ar   76  HIS76       0.1986
    136  NE2       18.6650   31.9050   35.5580 N.ar   76  HIS76      -0.2212
    137  N         18.6090   29.7880   28.9910 N.am   77  GLN77      -0.1963
    138  CA        18.2810   28.7400   28.0290 C.3    77  GLN77       0.1733
    139  C         18.8220   28.9910   26.6290 C.2    77  GLN77       0.2616
    140  O         19.0600   30.1370   26.2480 O.2    77  GLN77      -0.2715
    141  CB        16.7620   28.5740   27.9830 C.3    77  GLN77       0.0408
    142  CG        16.2640   27.4260   27.1080 C.3    77  GLN77       0.0908
    143  CD        14.8450   27.0140   27.4700 C.2    77  GLN77       0.2608
    144  OE1       14.0370   26.6910   26.6010 O.2    77  GLN77      -0.2717
    145  NE2       14.5400   27.0170   28.7710 N.am   77  GLN77      -0.0878
    146  N         19.0340   27.9160   25.8730 N.am   78  ASP78      -0.1971
    147  CA        19.5060   28.0460   24.4980 C.3    78  ASP78       0.1709
    148  C         18.3530   27.7270   23.5400 C.2    78  ASP78       0.2293
    149  O         17.3700   27.0920   23.9340 O.2    78  ASP78      -0.2864
    150  CB        20.7110   27.1370   24.2120 C.3    78  ASP78       0.1436
    151  CG        20.3820   25.6620   24.3140 C.2    78  ASP78       0.3671
    152  OD1       19.4090   25.1980   23.6680 O.co2  78  ASP78      -0.2456
    153  OD2       21.1140   24.9670   25.0440 O.co2  78  ASP78      -0.2456
    154  N         17.1800   23.9550   23.0420 N.3    81  LYS81      -0.1245
    155  CA        16.3260   23.4210   24.0920 C.3    81  LYS81       0.1561
    156  C         14.9230   24.0150   23.9850 C.2    81  LYS81       0.2260
    157  O         13.9340   23.3420   24.2680 O.2    81  LYS81      -0.2867
    158  CB        16.9580   23.7230   25.4540 C.3    81  LYS81       0.0271
    159  CG        16.2960   23.0400   26.6320 C.3    81  LYS81       0.0035
    160  CD        17.1870   23.1000   27.8800 C.3    81  LYS81       0.0206
    161  CE        16.4630   22.5160   29.0980 C.3    81  LYS81       0.1093
    162  NZ        17.3260   22.4480   30.3220 N.3    81  LYS81      -0.1314
    163  N         22.2890   25.6900   19.5070 N.3   123  GLN123     -0.1231
    164  CA        22.9030   25.5960   20.8370 C.3   123  GLN123      0.1698
    165  C         23.6860   26.8410   21.2550 C.2   123  GLN123      0.2592
    166  O         23.9200   27.0400   22.4430 O.2   123  GLN123     -0.2718
    167  CB        23.8450   24.3810   20.9410 C.3   123  GLN123      0.0381
    168  CG        23.2200   23.0340   20.6230 C.3   123  GLN123      0.0905
    169  CD        23.3430   22.6810   19.1490 C.2   123  GLN123      0.2608
    170  OE1       22.7230   23.3110   18.2870 O.2   123  GLN123     -0.2717
    171  NE2       24.1690   21.6780   18.8510 N.am  123  GLN123     -0.0878
    172  N         24.1270   27.6650   20.3050 N.am  124  ASN124     -0.1974
    173  CA        24.8400   28.8700   20.7130 C.3   124  ASN124      0.1688
    174  C         24.0410   30.1600   20.5230 C.2   124  ASN124      0.2292
    175  O         24.6140   31.2440   20.3890 O.2   124  ASN124     -0.2864
    176  CB        26.2160   28.9740   20.0450 C.3   124  ASN124      0.1181
    177  CG        26.1790   28.7060   18.5790 C.2   124  ASN124      0.2629
    178  OD1       25.3600   29.2690   17.8550 O.2   124  ASN124     -0.2716
    179  ND2       27.0900   27.8520   18.1140 N.am  124  ASN124     -0.0877
    180  N         21.3410   32.0780   22.6180 N.3   126  LEU126     -0.1245
    181  CA        20.7870   32.0980   23.9640 C.3   126  LEU126      0.1561
    182  C         19.6340   33.0700   24.1580 C.2   126  LEU126      0.2260
    183  O         19.6640   34.1890   23.6480 O.2   126  LEU126     -0.2867
    184  CB        21.9130   32.4190   24.9610 C.3   126  LEU126      0.0270
    185  CG        23.2300   31.6940   24.6590 C.3   126  LEU126      0.0019
    186  CD1       24.2930   32.2070   25.5820 C.3   126  LEU126      0.0001
    187  CD2       23.0750   30.2010   24.8010 C.3   126  LEU126      0.0001
    188  N         26.2660   33.4760   20.8510 N.3   136  ALA136     -0.1231
    189  CA        27.3150   33.0730   21.7960 C.3   136  ALA136      0.1694
    190  C         28.4180   32.3710   21.0240 C.2   136  ALA136      0.2592
    191  O         28.1380   31.7250   20.0110 O.2   136  ALA136     -0.2718
    192  CB        26.7390   32.1280   22.8730 C.3   136  ALA136      0.0304
    193  N         29.6580   32.4870   21.5040 N.am  137  ASP137     -0.1974
    194  CA        30.8280   31.8730   20.8500 C.3   137  ASP137      0.1709
    195  C         31.2380   32.5680   19.5540 C.2   137  ASP137      0.2293
    196  O         31.8020   31.9480   18.6570 O.2   137  ASP137     -0.2864
    197  CB        30.5790   30.3890   20.5730 C.3   137  ASP137      0.1436
    198  CG        30.3610   29.6030   21.8560 C.2   137  ASP137      0.3671
    199  OD1       30.5130   30.2210   22.9300 O.co2 137  ASP137     -0.2456
    200  OD2       30.0490   28.3900   21.8050 O.co2 137  ASP137     -0.2456
@<TRIPOS>BOND
     1   178   177    2
     2   179   177   am
     3   170   169    2
     4   177   176    1
     5   196   195    2
     6   171   169   am
     7   169   168    1
     8   163   164    1
     9   195   194    1
    10    50    48    1
    11   191   190    2
    12   176   173    1
    13    48    49    1
    14    48    45    1
    15   172   173    1
    16   172   165   am
    17   175   174    2
    18   174   173    1
    19   197   194    1
    20   197   198    1
    21   168   167    1
    22   164   167    1
    23   164   165    1
    24   194   193    1
    25   188   189    1
    26   190   193   am
    27   190   189    1
    28    47    46    2
    29   165   166    2
    30    45    46    1
    31    45    44    1
    32   189   192    1
    33   200   198   ar
    34   198   199   ar
    35   180   181    1
    36    44    42   am
    37   154   155    1
    38    81    82    1
    39   148   149    2
    40   148   147    1
    41    43    42    2
    42    42    41    1
    43   183   182    2
    44   152   151   ar
    45   181   182    1
    46   181   184    1
    47   156   155    1
    48   156   157    2
    49   155   158    1
    50   150   151    1
    51   150   147    1
    52   151   153   ar
    53    84    83    2
    54   147   146    1
    55    87    85    1
    56    79    80    1
    57    79    78    1
    58    82    85    1
    59    82    83    1
    60   185   187    1
    61   185   184    1
    62   185   186    1
    63    34    33    2
    64    85    86    1
    65    41    40    1
    66   158   159    1
    67    98    96   ar
    68    98    97   ar
    69    96    94   ar
    70    33    40   am
    71    33    32    1
    72    78    77    1
    73   146   139   am
    74   140   139    2
    75    35    32    1
    76    35    36    1
    77    97    95   ar
    78   144   143    2
    79    94    93   ar
    80   139   138    1
    81   159   160    1
    82    32    31    1
    83   126   124    1
    84    77    76    1
    85   142   143    1
    86   142   141    1
    87    36    37    1
    88   107   105   ar
    89   143   145   am
    90    38    37   ar
    91    95    93   ar
    92    93    92    1
    93    31    29   am
    94   160   161    1
    95    57    55    1
    96   141   138    1
    97   138   137    1
    98   125   124    1
    99    37    39   ar
   100   124   123    1
   101    76    73    1
   102   105   104    1
   103   105   106   ar
   104    29    30    2
   105    29    28    1
   106   123   120    1
   107    92    89    1
   108   104   103    1
   109   137   129   am
   110    28    27    2
   111   161   162    1
   112    55    56    1
   113    55    52    1
   114    73    74    1
   115    73    72    1
   116    75    74    2
   117    89    88    1
   118    89    90    1
   119   102   101    2
   120    51    52    1
   121    25    23    1
   122   120   121    1
   123   120   119    1
   124    27    21    1
   125    99    90   am
   126    99   100    1
   127   103   100    1
   128   129   130    2
   129   129   128    1
   130    52    53    1
   131    22    21    2
   132   122   121    2
   133   121   127   am
   134   119   110   am
   135    18    17    1
   136    90    91    2
   137    21    20    1
   138   101   100    1
   139   101   108   am
   140   127   128    1
   141    71    68    1
   142    23    20    1
   143    23    24    1
   144   128   131    1
   145   110   111    2
   146   110   109    1
   147    53    54    2
   148    17    16    1
   149   108   109    1
   150   109   112    1
   151    20    19    1
   152    70    69    2
   153    24    26    1
   154   131   132    1
   155    69    68    1
   156    68    67    1
   157    19    12   am
   158    15    16    1
   159    15    14    1
   160   114   116   ar
   161   114   113   ar
   162   112   113    1
   163    13    12    2
   164   116   118   ar
   165   113   115   ar
   166    12    11    1
   167   132   133   ar
   168   132   134   ar
   169   133   135   ar
   170   118   117   ar
   171   115   117   ar
   172    14    11    1
   173    11    10    1
   174   134   136   ar
   175   135   136   ar
   176    58    59    1
   177    59    62    1
   178    59    60    1
   179    10     3   am
   180    62    63    1
   181     4     3    2
   182     3     2    1
   183    63    64    1
   184    60    61    2
   185     9     7   ar
   186    64    65    1
   187    65    66    1
   188     6     7    1
   189     6     5    1
   190     7     8   ar
   191     2     5    1
   192     2     1    1
