@<TRIPOS>MOLECULE
tmp/2r65A00.pdb
 127 121 0 0 0
SMALL
GASTEIGER

@<TRIPOS>ATOM
      1  N        101.3980   43.2630   38.7920 N.3    12  ASP12      -0.1225
      2  CA       100.5780   44.1640   39.6130 C.3    12  ASP12       0.1805
      3  C         99.3160   43.5230   40.1950 C.2    12  ASP12       0.2598
      4  O         98.7190   44.0520   41.1340 O.2    12  ASP12      -0.2718
      5  CB       100.2080   45.4220   38.8240 C.3    12  ASP12       0.1424
      6  CG       101.4090   46.0940   38.2110 C.2    12  ASP12       0.3668
      7  OD1      101.3580   47.3320   38.0190 O.co2  12  ASP12      -0.2456
      8  OD2      102.4120   45.3840   37.9310 O.co2  12  ASP12      -0.2456
      9  N         98.9220   42.3910   39.6210 N.am   13  MET13      -0.1965
     10  CA        97.7800   41.6640   40.0910 C.3    13  MET13       0.1736
     11  C         98.2750   40.4630   40.8750 C.2    13  MET13       0.2616
     12  O         99.1910   39.7660   40.4350 O.2    13  MET13      -0.2715
     13  CB        96.9030   41.2220   38.9240 C.3    13  MET13       0.0427
     14  CG        95.4360   41.1160   39.3230 C.3    13  MET13       0.0599
     15  SD        94.4460   39.9250   38.4140 S.3    13  MET13      -0.1393
     16  CE        95.6220   38.5700   38.3840 C.3    13  MET13       0.0692
     17  N         97.6670   40.2340   42.0410 N.am   14  ALA14      -0.1977
     18  CA        98.0540   39.1440   42.9400 C.3    14  ALA14       0.1597
     19  C         96.9130   38.1580   43.1210 C.2    14  ALA14       0.2287
     20  O         95.7360   38.5370   43.1450 O.2    14  ALA14      -0.2864
     21  CB        98.5030   39.6950   44.2800 C.3    14  ALA14       0.0319
     22  N         94.8600   34.9080   41.4090 N.3    16  ASN16      -0.1240
     23  CA        94.2800   34.8270   40.0710 C.3    16  ASN16       0.1653
     24  C         95.2150   34.3050   38.9850 C.2    16  ASN16       0.2266
     25  O         94.9490   34.5010   37.7980 O.2    16  ASN16      -0.2867
     26  CB        93.7760   36.2040   39.6500 C.3    16  ASN16       0.1155
     27  CG        92.9790   36.8850   40.7350 C.2    16  ASN16       0.2627
     28  OD1       92.2030   36.2410   41.4520 O.2    16  ASN16      -0.2716
     29  ND2       93.1530   38.2020   40.8590 N.am   16  ASN16      -0.0877
     30  N         82.7030   43.3180   42.9140 N.3    53  PRO53      -0.2102
     31  CA        83.3750   44.6150   42.7670 C.3    53  PRO53       0.1504
     32  C         84.8650   44.6410   43.1650 C.2    53  PRO53       0.2576
     33  O         85.2920   43.8880   44.0510 O.2    53  PRO53      -0.2718
     34  CB        82.5630   45.5170   43.6990 C.3    53  PRO53       0.0282
     35  CG        81.2010   44.8940   43.6950 C.3    53  PRO53       0.0208
     36  CD        81.4900   43.4350   43.7420 C.3    53  PRO53       0.0893
     37  N         85.6290   45.5030   42.4840 N.am   54  GLY54      -0.1943
     38  CA        87.0430   45.7750   42.7900 C.3    54  GLY54       0.2014
     39  C         87.9220   44.5570   43.0290 C.2    54  GLY54       0.2640
     40  O         88.2670   44.2410   44.1730 O.2    54  GLY54      -0.2714
     41  N         88.3060   43.8830   41.9460 N.am   55  THR55      -0.1936
     42  CA        88.8850   42.5470   42.0610 C.3    55  THR55       0.2028
     43  C         89.8640   42.2550   40.9430 C.2    55  THR55       0.2643
     44  O         90.6130   41.2800   41.0000 O.2    55  THR55      -0.2714
     45  CB        87.7740   41.4600   42.1300 C.3    55  THR55       0.1808
     46  OG1       88.3000   40.1900   41.7120 O.3    55  THR55      -0.2208
     47  CG2       86.6130   41.8250   41.2250 C.3    55  THR55       0.0379
     48  N         89.8660   43.1090   39.9310 N.am   56  GLY56      -0.1939
     49  CA        90.8990   43.0370   38.9010 C.3    56  GLY56       0.2014
     50  C         90.3210   43.0680   37.5060 C.2    56  GLY56       0.2639
     51  O         91.0450   43.3300   36.5320 O.2    56  GLY56      -0.2714
     52  N         89.0160   42.7950   37.4140 N.am   57  LYS57      -0.1963
     53  CA        88.3050   42.8320   36.1330 C.3    57  LYS57       0.1728
     54  C         88.9080   43.9520   35.2660 C.2    57  LYS57       0.2617
     55  O         89.2940   43.7030   34.1160 O.2    57  LYS57      -0.2715
     56  CB        86.7790   42.9990   36.3220 C.3    57  LYS57       0.0311
     57  CG        86.1550   41.9160   37.2030 C.3    57  LYS57       0.0038
     58  CD        84.6590   42.0680   37.4320 C.3    57  LYS57       0.0206
     59  CE        84.2970   43.3030   38.2430 C.3    57  LYS57       0.1093
     60  NZ        83.4980   44.3300   37.4260 N.3    57  LYS57      -0.1314
     61  N         89.0460   45.1590   35.8280 N.am   58  THR58      -0.1937
     62  CA        89.6600   46.2410   35.0860 C.3    58  THR58       0.2028
     63  C         91.1610   46.0470   34.9880 C.2    58  THR58       0.2642
     64  O         91.7210   46.0550   33.8940 O.2    58  THR58      -0.2714
     65  CB        89.3640   47.5880   35.6990 C.3    58  THR58       0.1808
     66  OG1       87.9740   47.6710   36.0230 O.3    58  THR58      -0.2208
     67  CG2       89.7030   48.6720   34.7150 C.3    58  THR58       0.0379
     68  N         91.8040   45.8650   36.1390 N.am   59  LEU59      -0.1977
     69  CA        93.2600   45.7640   36.2230 C.3    59  LEU59       0.1596
     70  C         93.8050   44.6950   35.2680 C.2    59  LEU59       0.2287
     71  O         94.8140   44.8880   34.5900 O.2    59  LEU59      -0.2864
     72  CB        93.6860   45.4630   37.6670 C.3    59  LEU59       0.0297
     73  CG        95.2030   45.3960   37.8630 C.3    59  LEU59       0.0022
     74  CD1       95.7780   46.7970   37.8320 C.3    59  LEU59       0.0001
     75  CD2       95.5730   44.6840   39.1400 C.3    59  LEU59       0.0001
     76  N         83.9090   48.2890   31.2460 N.3   110  ASP110     -0.1239
     77  CA        83.5650   48.0000   32.6370 C.3   110  ASP110      0.1674
     78  C         82.0670   48.1970   32.7950 C.2   110  ASP110      0.2266
     79  O         81.4900   49.1440   32.2500 O.2   110  ASP110     -0.2867
     80  CB        84.3560   48.8750   33.6320 C.3   110  ASP110      0.1410
     81  CG        84.3890   48.2920   35.0760 C.2   110  ASP110      0.3668
     82  OD1       83.5150   47.4420   35.4080 O.co2 110  ASP110     -0.2456
     83  OD2       85.2830   48.7030   35.8870 O.co2 110  ASP110     -0.2456
     84  N         97.8030   40.5290   47.7030 N.3   181  ILE181     -0.1245
     85  CA        97.3270   41.9230   47.6370 C.3   181  ILE181      0.1561
     86  C         97.9010   42.7810   48.7710 C.2   181  ILE181      0.2260
     87  O         98.5690   43.7900   48.5320 O.2   181  ILE181     -0.2867
     88  CB        95.8070   42.0070   47.8370 C.3   181  ILE181      0.0252
     89  CG1       95.0990   40.7290   47.3850 C.3   181  ILE181      0.0019
     90  CG2       95.2380   43.2710   47.2490 C.3   181  ILE181      0.0019
     91  CD1       94.9230   40.5660   45.9400 C.3   181  ILE181      0.0001
     92  N        101.2720   43.1830   48.1970 N.3   184  VAL184     -0.1231
     93  CA       101.4610   44.0080   46.9820 C.3   184  VAL184      0.1692
     94  C        101.4190   45.4990   47.3150 C.2   184  VAL184      0.2592
     95  O        102.3560   46.2460   46.9730 O.2   184  VAL184     -0.2718
     96  CB       100.3770   43.7150   45.9120 C.3   184  VAL184      0.0266
     97  CG1      100.1570   44.9130   45.0070 C.3   184  VAL184      0.0020
     98  CG2      100.7420   42.5050   45.0940 C.3   184  VAL184      0.0020
     99  N        100.3310   45.8940   48.0030 N.am  185  HIS185     -0.1976
    100  CA       100.0270   47.2840   48.3740 C.3   185  HIS185      0.1656
    101  C        100.7410   47.8150   49.6060 C.2   185  HIS185      0.2291
    102  O        100.6780   49.0080   49.9070 O.2   185  HIS185     -0.2864
    103  CB        98.5340   47.4450   48.5670 C.3   185  HIS185      0.0771
    104  CG        97.7580   47.2660   47.3080 C.ar  185  HIS185      0.0820
    105  ND1       97.9590   48.0580   46.1980 N.ar  185  HIS185     -0.2267
    106  CD2       96.7920   46.3820   46.9730 C.ar  185  HIS185      0.1154
    107  CE1       97.1470   47.6710   45.2330 C.ar  185  HIS185      0.1986
    108  NE2       96.4250   46.6600   45.6780 N.ar  185  HIS185     -0.2212
    109  N         86.8850   42.7710   48.9130 N.3   208  ALA208     -0.1231
    110  CA        87.1980   42.8890   47.4810 C.3   208  ALA208      0.1694
    111  C         88.6650   42.7850   47.0180 C.2   208  ALA208      0.2593
    112  O         88.9490   42.0490   46.0700 O.2   208  ALA208     -0.2718
    113  CB        86.5260   44.1320   46.8860 C.3   208  ALA208      0.0304
    114  N         89.5870   43.5210   47.6340 N.am  209  GLY209     -0.1942
    115  CA        90.9210   43.6290   47.0250 C.3   209  GLY209      0.2014
    116  C         91.3050   45.0670   46.7370 C.2   209  GLY209      0.2638
    117  O         92.3540   45.5180   47.1610 O.2   209  GLY209     -0.2714
    118  N         90.4500   45.7830   46.0030 N.am  210  ALA210     -0.1977
    119  CA        90.4800   47.2620   45.9760 C.3   210  ALA210      0.1597
    120  C         90.3890   47.7780   47.4170 C.2   210  ALA210      0.2287
    121  O         91.2070   48.6180   47.8500 O.2   210  ALA210     -0.2864
    122  CB        89.3280   47.8440   45.1110 C.3   210  ALA210      0.0319
    123  N         93.4870   47.0820   49.4120 N.3   213  ALA213     -0.1245
    124  CA        94.4310   48.1250   48.9900 C.3   213  ALA213      0.1562
    125  C         94.1370   49.4520   49.6530 C.2   213  ALA213      0.2260
    126  O         95.0310   50.2930   49.8100 O.2   213  ALA213     -0.2867
    127  CB        94.3830   48.2920   47.4710 C.3   213  ALA213      0.0290
@<TRIPOS>BOND
     1    76    77    1
     2    79    78    2
     3    77    78    1
     4    77    80    1
     5    80    81    1
     6    64    63    2
     7    55    54    2
     8    71    70    2
     9    67    65    1
    10    63    62    1
    11    63    68   am
    12    81    82   ar
    13    81    83   ar
    14    62    65    1
    15    62    61    1
    16    54    61   am
    17    54    53    1
    18    70    69    1
    19    65    66    1
    20    53    56    1
    21    53    52    1
    22    68    69    1
    23    69    72    1
    24    56    57    1
    25    51    50    2
    26    57    58    1
    27    52    50   am
    28    60    59    1
    29    58    59    1
    30    50    49    1
    31    72    73    1
    32    25    24    2
    33    74    73    1
    34    73    75    1
    35     8     6   ar
    36     7     6   ar
    37     6     5    1
    38    16    15    1
    39    15    14    1
    40     1     2    1
    41     5     2    1
    42    49    48    1
    43    13    14    1
    44    13    10    1
    45    24    23    1
    46     2     3    1
    47     9    10    1
    48     9     3   am
    49    26    23    1
    50    26    27    1
    51    48    43   am
    52    23    22    1
    53    10    11    1
    54     3     4    2
    55    12    11    2
    56    27    29   am
    57    27    28    2
    58    11    17   am
    59    43    44    2
    60    43    42    1
    61    47    45    1
    62    46    45    1
    63    41    42    1
    64    41    39   am
    65    17    18    1
    66    42    45    1
    67    37    38    1
    68    37    32   am
    69    31    30    1
    70    31    32    1
    71    31    34    1
    72    38    39    1
    73    30    36    1
    74    18    19    1
    75    18    21    1
    76    39    40    2
    77    19    20    2
    78    32    33    2
    79    35    34    1
    80    35    36    1
    81    97    96    1
    82    98    96    1
    83   122   119    1
    84   107   108   ar
    85   107   105   ar
    86   108   106   ar
    87    96    93    1
    88    91    89    1
    89   119   118    1
    90   119   120    1
    91   118   116   am
    92   112   111    2
    93   105   104   ar
    94   116   115    1
    95   116   117    2
    96   113   110    1
    97    95    94    2
    98   106   104   ar
    99    93    94    1
   100    93    92    1
   101   111   110    1
   102   111   114   am
   103   115   114    1
   104    90    88    1
   105   104   103    1
   106    94    99   am
   107    89    88    1
   108   120   121    2
   109   127   124    1
   110   110   109    1
   111    85    84    1
   112    85    88    1
   113    85    86    1
   114    99   100    1
   115   100   103    1
   116   100   101    1
   117    87    86    2
   118   124   123    1
   119   124   125    1
   120   101   102    2
   121   125   126    2
