@<TRIPOS>MOLECULE
tmp/2r6fA00.pdb
 135 127 0 0 0
SMALL
GASTEIGER

@<TRIPOS>ATOM
      1  N         53.0890   35.7200   21.3090 N.3    11  HIS11      -0.1226
      2  CA        54.2090   35.4200   22.2160 C.3    11  HIS11       0.1752
      3  C         55.5270   35.7790   21.5650 C.2    11  HIS11       0.2596
      4  O         56.1440   36.7780   21.9230 O.2    11  HIS11      -0.2718
      5  CB        54.2410   33.9400   22.6160 C.3    11  HIS11       0.0759
      6  CG        53.2530   33.5680   23.6720 C.ar   11  HIS11       0.0818
      7  ND1       52.1080   32.8540   23.4010 N.ar   11  HIS11      -0.2268
      8  CD2       53.2440   33.8030   25.0040 C.ar   11  HIS11       0.1154
      9  CE1       51.4330   32.6700   24.5220 C.ar   11  HIS11       0.1986
     10  NE2       52.1020   33.2340   25.5100 N.ar   11  HIS11      -0.2212
     11  N         55.9430   34.9440   20.6120 N.am   12  ASN12      -0.1974
     12  CA        57.1800   35.1270   19.8620 C.3    12  ASN12       0.1688
     13  C         56.8990   35.5840   18.4390 C.2    12  ASN12       0.2292
     14  O         57.8150   35.6560   17.6230 O.2    12  ASN12      -0.2864
     15  CB        57.9860   33.8180   19.8230 C.3    12  ASN12       0.1181
     16  CG        57.2800   32.6910   19.0440 C.2    12  ASN12       0.2629
     17  OD1       56.0930   32.7800   18.7250 O.2    12  ASN12      -0.2716
     18  ND2       58.0190   31.6190   18.7510 N.am   12  ASN12      -0.0877
     19  N         58.4870   22.7390   16.6760 N.3    32  SER32      -0.1202
     20  CA        57.8970   22.8620   17.9920 C.3    32  SER32       0.2020
     21  C         58.3690   24.1990   18.5380 C.2    32  SER32       0.2619
     22  O         59.5610   24.4930   18.5080 O.2    32  SER32      -0.2717
     23  CB        58.3650   21.7280   18.9050 C.3    32  SER32       0.2103
     24  OG        57.9220   21.9140   20.2390 O.3    32  SER32      -0.2182
     25  N         57.4260   25.0050   19.0110 N.am   33  GLY33      -0.1942
     26  CA        57.7250   26.3110   19.5720 C.3    33  GLY33       0.2014
     27  C         57.9330   27.3920   18.5330 C.2    33  GLY33       0.2640
     28  O         58.4030   28.4830   18.8640 O.2    33  GLY33      -0.2714
     29  N         57.5880   27.1110   17.2770 N.am   34  SER34      -0.1935
     30  CA        57.7560   28.1020   16.2110 C.3    34  SER34       0.2055
     31  C         56.7440   29.2450   16.3430 C.2    34  SER34       0.2644
     32  O         57.0870   30.4000   16.1140 O.2    34  SER34      -0.2714
     33  CB        57.6940   27.4470   14.8300 C.3    34  SER34       0.2130
     34  OG        56.5510   26.6290   14.7030 O.3    34  SER34      -0.2179
     35  N         55.5160   28.9220   16.7400 N.am   35  GLY35      -0.1939
     36  CA        54.4730   29.9340   16.9530 C.3    35  GLY35       0.2014
     37  C         53.1050   29.5980   16.3930 C.2    35  GLY35       0.2639
     38  O         52.2940   30.4900   16.1450 O.2    35  GLY35      -0.2714
     39  N         52.8260   28.3120   16.2330 N.am   36  LYS36      -0.1963
     40  CA        51.5650   27.8670   15.6600 C.3    36  LYS36       0.1728
     41  C         50.3670   28.1290   16.5770 C.2    36  LYS36       0.2617
     42  O         49.3720   28.7000   16.1380 O.2    36  LYS36      -0.2715
     43  CB        51.6200   26.3760   15.3550 C.3    36  LYS36       0.0311
     44  CG        52.8120   25.9150   14.5600 C.3    36  LYS36       0.0038
     45  CD        52.7000   24.4270   14.3530 C.3    36  LYS36       0.0206
     46  CE        54.0470   23.8060   14.2230 C.3    36  LYS36       0.1093
     47  NZ        54.7270   23.7380   15.5430 N.3    36  LYS36      -0.1314
     48  N         50.4550   27.6910   17.8340 N.am   37  SER37      -0.1936
     49  CA        49.3640   27.8950   18.8000 C.3    37  SER37       0.2055
     50  C         49.1980   29.3690   19.1270 C.2    37  SER37       0.2643
     51  O         48.0810   29.8620   19.3120 O.2    37  SER37      -0.2714
     52  CB        49.6210   27.1430   20.1050 C.3    37  SER37       0.2130
     53  OG        49.9070   25.7800   19.8590 O.3    37  SER37      -0.2179
     54  N         50.3270   30.0630   19.2120 N.am   38  SER38      -0.1949
     55  CA        50.3390   31.4830   19.4970 C.3    38  SER38       0.1924
     56  C         49.4570   32.2170   18.4880 C.2    38  SER38       0.2314
     57  O         48.7410   33.1510   18.8490 O.2    38  SER38      -0.2863
     58  CB        51.7760   32.0010   19.4600 C.3    38  SER38       0.2116
     59  OG        52.6070   31.2300   20.3190 O.3    38  SER38      -0.2180
     60  N         46.0000   31.2120   20.4700 N.3    42  ASP42      -0.1239
     61  CA        46.1280   32.3710   21.3400 C.3    42  ASP42       0.1674
     62  C         45.7960   33.7020   20.6600 C.2    42  ASP42       0.2266
     63  O         45.6990   34.7240   21.3450 O.2    42  ASP42      -0.2867
     64  CB        47.5350   32.4160   21.9520 C.3    42  ASP42       0.1410
     65  CG        47.8800   31.1440   22.7450 C.2    42  ASP42       0.3668
     66  OD1       49.0700   30.9560   23.0870 O.co2  42  ASP42      -0.2456
     67  OD2       46.9720   30.3220   23.0170 O.co2  42  ASP42      -0.2456
     68  N         46.4890   22.4180   13.1760 N.3   483  VAL483     -0.1245
     69  CA        47.9050   22.4460   13.4900 C.3   483  VAL483      0.1561
     70  C         48.4100   21.0020   13.4680 C.2   483  VAL483      0.2260
     71  O         48.2050   20.2540   14.4250 O.2   483  VAL483     -0.2867
     72  CB        48.1490   23.1010   14.8480 C.3   483  VAL483      0.0252
     73  CG1       49.5890   22.9260   15.2690 C.3   483  VAL483      0.0019
     74  CG2       47.7870   24.5620   14.7730 C.3   483  VAL483      0.0019
     75  N         61.0530   29.6000   19.2910 N.3   503  GLY503     -0.1225
     76  CA        61.2300   30.7280   20.2010 C.3   503  GLY503      0.1811
     77  C         61.5170   32.0410   19.5090 C.2   503  GLY503      0.2280
     78  O         60.7800   32.4420   18.6120 O.2   503  GLY503     -0.2866
     79  N         63.3470   26.7670   24.0580 N.3   753  TYR753     -0.1241
     80  CA        62.5670   27.9210   23.6290 C.3   753  TYR753      0.1605
     81  C         61.6580   28.3990   24.7510 C.2   753  TYR753      0.2264
     82  O         61.2750   29.5690   24.7740 O.2   753  TYR753     -0.2867
     83  CB        61.7170   27.6060   22.3900 C.3   753  TYR753      0.0534
     84  CG        60.7240   26.4790   22.5640 C.ar  753  TYR753     -0.0201
     85  CD1       59.4730   26.6940   23.1330 C.ar  753  TYR753     -0.0009
     86  CD2       61.0300   25.1950   22.1390 C.ar  753  TYR753     -0.0009
     87  CE1       58.5620   25.6470   23.2840 C.ar  753  TYR753      0.0417
     88  CE2       60.1270   24.1470   22.2870 C.ar  753  TYR753      0.0417
     89  CZ        58.9020   24.3740   22.8550 C.ar  753  TYR753      0.1957
     90  OH        58.0350   23.3110   22.9900 O.3   753  TYR753     -0.2866
     91  N         60.4300   29.3270   28.6870 N.3   754  LYS754     -0.1245
     92  CA        61.0050   30.1030   29.7760 C.3   754  LYS754      0.1561
     93  C         61.0580   29.3030   31.0710 C.2   754  LYS754      0.2260
     94  O         60.1710   28.4980   31.3430 O.2   754  LYS754     -0.2867
     95  CB        60.1860   31.3770   29.9680 C.3   754  LYS754      0.0271
     96  CG        60.0270   32.1870   28.6850 C.3   754  LYS754      0.0035
     97  CD        59.3060   33.5010   28.9340 C.3   754  LYS754      0.0206
     98  CE        59.3410   34.4080   27.7080 C.3   754  LYS754      0.1093
     99  NZ        58.7520   35.7500   27.9790 N.3   754  LYS754     -0.1314
    100  N         57.8290   29.4120   33.1870 N.3   757  GLN757     -0.1231
    101  CA        56.5310   29.1370   32.5700 C.3   757  GLN757      0.1683
    102  C         55.6730   28.1980   33.4350 C.2   757  GLN757      0.2434
    103  O         56.0720   27.0690   33.7030 O.2   757  GLN757     -0.2733
    104  CB        56.6980   28.5440   31.1750 C.3   757  GLN757      0.0380
    105  CG        55.3700   28.3400   30.4780 C.3   757  GLN757      0.0905
    106  CD        55.5140   27.9260   29.0410 C.2   757  GLN757      0.2608
    107  OE1       56.6240   27.7230   28.5480 O.2   757  GLN757     -0.2717
    108  NE2       54.3820   27.7990   28.3490 N.am  757  GLN757     -0.0878
    109  N         54.4830   28.6560   33.8570 N.am  758  PRO758     -0.2729
    110  CA        53.6160   27.8400   34.7030 C.3   758  PRO758      0.1401
    111  C         53.3210   26.4640   34.1320 C.2   758  PRO758      0.2269
    112  O         52.9040   26.3510   32.9850 O.2   758  PRO758     -0.2865
    113  CB        52.3250   28.6580   34.7700 C.3   758  PRO758      0.0296
    114  CG        52.7640   30.0490   34.5760 C.3   758  PRO758      0.0237
    115  CD        53.8780   29.9680   33.5760 C.3   758  PRO758      0.0939
    116  N         50.2950   25.5670   32.1120 N.3   761  THR761     -0.1218
    117  CA        50.2160   25.9900   30.7060 C.3   761  THR761      0.1862
    118  C         51.1160   25.1860   29.7530 C.2   761  THR761      0.2287
    119  O         51.2620   25.5480   28.5870 O.2   761  THR761     -0.2866
    120  CB        50.5650   27.5080   30.5630 C.3   761  THR761      0.1770
    121  OG1       51.9530   27.7370   30.8640 O.3   761  THR761     -0.2211
    122  CG2       49.6840   28.3580   31.4910 C.3   761  THR761      0.0375
    123  N         55.1600   18.6590   26.0400 N.3   766  GLU766     -0.1245
    124  CA        56.1510   19.4820   26.7290 C.3   766  GLU766      0.1567
    125  C         56.4160   18.9420   28.1350 C.2   766  GLU766      0.2260
    126  O         57.5670   18.7320   28.5180 O.2   766  GLU766     -0.2867
    127  CB        55.7170   20.9570   26.7810 C.3   766  GLU766      0.0388
    128  CG        55.8130   21.6850   25.4300 C.3   766  GLU766      0.1160
    129  CD        55.3470   23.1390   25.4700 C.2   766  GLU766      0.3649
    130  OE1       54.8700   23.5960   26.5330 O.co2 766  GLU766     -0.2457
    131  OE2       55.4670   23.8260   24.4270 O.co2 766  GLU766     -0.2457
    132  N         53.2420   16.4650   19.3790 N.3   794  GLY794     -0.1225
    133  CA        53.6010   17.8940   19.2970 C.3   794  GLY794      0.1811
    134  C         54.9940   18.2440   18.7960 C.2   794  GLY794      0.2280
    135  O         55.5770   19.2440   19.2170 O.2   794  GLY794     -0.2866
@<TRIPOS>BOND
     1    68    69    1
     2    70    69    1
     3    70    71    2
     4    69    72    1
     5    46    45    1
     6    46    47    1
     7    45    44    1
     8    44    43    1
     9    34    33    1
    10    74    72    1
    11    33    30    1
    12    72    73    1
    13    43    40    1
    14    40    39    1
    15    40    41    1
    16    32    31    2
    17    42    41    2
    18    38    37    2
    19    30    31    1
    20    30    29    1
    21    39    37   am
    22    31    35   am
    23    37    36    1
    24    41    48   am
    25    19    20    1
    26    35    36    1
    27    29    27   am
    28    14    13    2
    29    48    49    1
    30    20    21    1
    31    20    23    1
    32    13    12    1
    33    56    57    2
    34    56    55    1
    35    22    21    2
    36    27    28    2
    37    27    26    1
    38    21    25   am
    39    78    77    2
    40    17    16    2
    41    18    16   am
    42   134   135    2
    43   134   133    1
    44    49    50    1
    45    49    52    1
    46    23    24    1
    47    25    26    1
    48    16    15    1
    49    50    54   am
    50    50    51    2
    51    54    55    1
    52    75    76    1
    53   133   132    1
    54    58    55    1
    55    58    59    1
    56    77    76    1
    57    15    12    1
    58    53    52    1
    59    12    11    1
    60    60    61    1
    61    11     3   am
    62    62    61    1
    63    62    63    2
    64     1     2    1
    65    61    64    1
    66     3     4    2
    67     3     2    1
    68    64    65    1
    69    86    88   ar
    70    86    84   ar
    71     2     5    1
    72    88    89   ar
    73    83    84    1
    74    83    80    1
    75    84    85   ar
    76     5     6    1
    77    65    67   ar
    78    65    66   ar
    79    89    90    1
    80    89    87   ar
    81    85    87   ar
    82     7     6   ar
    83     7     9   ar
    84    80    79    1
    85    80    81    1
    86     6     8   ar
    87   131   129   ar
    88     9    10   ar
    89    81    82    2
    90     8    10   ar
    91   128   129    1
    92   128   127    1
    93   129   130   ar
    94   123   124    1
    95   124   127    1
    96   124   125    1
    97    98    99    1
    98    98    97    1
    99   125   126    2
   100   108   106   am
   101   107   106    2
   102   119   118    2
   103    96    97    1
   104    96    95    1
   105    91    92    1
   106   106   105    1
   107   118   117    1
   108    92    95    1
   109    92    93    1
   110   105   104    1
   111   120   117    1
   112   120   121    1
   113   120   122    1
   114   117   116    1
   115    93    94    2
   116   104   101    1
   117   101   100    1
   118   101   102    1
   119   112   111    2
   120   102   103    2
   121   102   109   am
   122   115   109    1
   123   115   114    1
   124   109   110    1
   125   111   110    1
   126   114   113    1
   127   110   113    1
