@<TRIPOS>MOLECULE
tmp/2r6fA01.pdb
 135 128 0 0 0
SMALL
GASTEIGER

@<TRIPOS>ATOM
      1  N         35.7300    1.4870   19.2600 N.3   417  TYR417     -0.1227
      2  CA        36.0730    0.4190   20.1960 C.3   417  TYR417      0.1736
      3  C         35.6320    0.6710   21.6160 C.2   417  TYR417      0.2595
      4  O         35.4480   -0.2750   22.3760 O.2   417  TYR417     -0.2718
      5  CB        37.5800    0.1470   20.2050 C.3   417  TYR417      0.0548
      6  CG        38.4670    1.3280   20.5410 C.ar  417  TYR417     -0.0200
      7  CD1       38.8040    1.6280   21.8520 C.ar  417  TYR417     -0.0009
      8  CD2       39.0010    2.1220   19.5280 C.ar  417  TYR417     -0.0009
      9  CE1       39.6340    2.7080   22.1420 C.ar  417  TYR417      0.0417
     10  CE2       39.8270    3.1920   19.8080 C.ar  417  TYR417      0.0417
     11  CZ        40.1430    3.4780   21.1060 C.ar  417  TYR417      0.1957
     12  OH        40.9710    4.5410   21.3460 O.3   417  TYR417     -0.2866
     13  N         35.4780    1.9360   21.9830 N.am  418  LEU418     -0.1966
     14  CA        35.1160    2.2740   23.3580 C.3   418  LEU418      0.1728
     15  C         33.6120    2.2880   23.5370 C.2   418  LEU418      0.2616
     16  O         32.8720    2.5490   22.5910 O.2   418  LEU418     -0.2715
     17  CB        35.7840    3.5850   23.7950 C.3   418  LEU418      0.0311
     18  CG        35.5900    4.8610   22.9840 C.3   418  LEU418      0.0022
     19  CD1       34.2730    5.5040   23.3590 C.3   418  LEU418      0.0001
     20  CD2       36.7510    5.8220   23.2360 C.3   418  LEU418      0.0001
     21  N         33.1720    1.9620   24.7490 N.am  419  THR419     -0.1951
     22  CA        31.7500    1.8800   25.0680 C.3   419  THR419      0.1897
     23  C         31.1360    3.2450   25.3840 C.2   419  THR419      0.2313
     24  O         31.8420    4.2530   25.4670 O.2   419  THR419     -0.2863
     25  CB        31.5130    0.9100   26.2450 C.3   419  THR419      0.1794
     26  OG1       32.3700    1.2560   27.3390 O.3   419  THR419     -0.2208
     27  CG2       31.8200   -0.4990   25.8210 C.3   419  THR419      0.0378
     28  N         31.7540    3.8020   29.3740 N.3   422  ARG422     -0.1245
     29  CA        33.1310    4.1530   29.7510 C.3   422  ARG422      0.1563
     30  C         33.2340    5.5110   30.4130 C.2   422  ARG422      0.2260
     31  O         32.7090    6.4810   29.8920 O.2   422  ARG422     -0.2867
     32  CB        33.9800    4.1970   28.4850 C.3   422  ARG422      0.0307
     33  CG        35.4300    4.6400   28.6440 C.3   422  ARG422      0.0489
     34  CD        36.3320    3.5560   29.2300 C.3   422  ARG422      0.2205
     35  NE        37.7260    3.8270   28.8770 N.pl3 422  ARG422     -0.0865
     36  CZ        38.2600    3.5570   27.6850 C.cat 422  ARG422      0.5346
     37  NH1       37.5360    2.9920   26.7220 N.pl3 422  ARG422      0.1354
     38  NH2       39.5330    3.8580   27.4460 N.pl3 422  ARG422      0.1354
     39  N         38.8060    8.3870   32.1960 N.3   426  THR426     -0.1218
     40  CA        39.7230    7.2930   31.8710 C.3   426  THR426      0.1862
     41  C         40.2040    7.3200   30.4190 C.2   426  THR426      0.2287
     42  O         40.9010    6.4070   29.9860 O.2   426  THR426     -0.2866
     43  CB        39.0630    5.9240   32.1130 C.3   426  THR426      0.1770
     44  OG1       37.9980    5.7290   31.1720 O.3   426  THR426     -0.2211
     45  CG2       38.5280    5.8190   33.5360 C.3   426  THR426      0.0375
     46  N         42.0540   10.3950   22.4950 N.3   431  GLU431     -0.1245
     47  CA        40.6760    9.9310   22.5280 C.3   431  GLU431      0.1567
     48  C         39.7090   11.0730   22.8570 C.2   431  GLU431      0.2260
     49  O         38.7700   11.3300   22.1010 O.2   431  GLU431     -0.2867
     50  CB        40.5250    8.7920   23.5430 C.3   431  GLU431      0.0388
     51  CG        41.1800    7.4890   23.1170 C.3   431  GLU431      0.1160
     52  CD        41.1540    6.4270   24.2020 C.2   431  GLU431      0.3649
     53  OE1       41.2640    6.7870   25.3920 O.co2 431  GLU431     -0.2457
     54  OE2       41.0460    5.2260   23.8680 O.co2 431  GLU431     -0.2457
     55  N         42.3010   -6.0480   29.6690 N.3   557  HIS557     -0.1226
     56  CA        41.0490   -5.6090   29.0410 C.3   557  HIS557      0.1752
     57  C         40.6950   -6.5430   27.8880 C.2   557  HIS557      0.2596
     58  O         40.0760   -7.5830   28.1150 O.2   557  HIS557     -0.2718
     59  CB        41.0870   -4.1350   28.6080 C.3   557  HIS557      0.0759
     60  CG        40.9140   -3.1620   29.7360 C.ar  557  HIS557      0.0818
     61  ND1       41.9480   -2.3950   30.2280 N.ar  557  HIS557     -0.2268
     62  CD2       39.8230   -2.8340   30.4690 C.ar  557  HIS557      0.1154
     63  CE1       41.5020   -1.6330   31.2120 C.ar  557  HIS557      0.1986
     64  NE2       40.2140   -1.8770   31.3750 N.ar  557  HIS557     -0.2212
     65  N         41.0940   -6.1960   26.6670 N.am  558  ASN558     -0.1974
     66  CA        40.8000   -7.0430   25.5160 C.3   558  ASN558      0.1688
     67  C         41.9630   -7.9600   25.1550 C.2   558  ASN558      0.2292
     68  O         41.9210   -8.5990   24.1150 O.2   558  ASN558     -0.2864
     69  CB        40.3900   -6.2060   24.2920 C.3   558  ASN558      0.1181
     70  CG        41.5270   -5.3530   23.7410 C.2   558  ASN558      0.2629
     71  OD1       42.4060   -4.9070   24.4790 O.2   558  ASN558     -0.2716
     72  ND2       41.4970   -5.1060   22.4380 N.am  558  ASN558     -0.0877
     73  N         44.6610    1.8350   17.2940 N.3   578  SER578     -0.1202
     74  CA        44.0680    2.2910   18.5500 C.3   578  SER578      0.2020
     75  C         42.9660    1.3170   18.9610 C.2   578  SER578      0.2619
     76  O         42.1180    0.9430   18.1460 O.2   578  SER578     -0.2717
     77  CB        43.5560    3.7390   18.4390 C.3   578  SER578      0.2103
     78  OG        42.8200    3.9450   17.2490 O.3   578  SER578     -0.2182
     79  N         43.0110    0.8910   20.2230 N.am  579  GLY579     -0.1942
     80  CA        42.0640   -0.0840   20.7620 C.3   579  GLY579      0.2014
     81  C         42.6380   -1.4930   20.8080 C.2   579  GLY579      0.2640
     82  O         42.0390   -2.3960   21.3840 O.2   579  GLY579     -0.2714
     83  N         43.8090   -1.6860   20.2090 N.am  580  SER580     -0.1935
     84  CA        44.4490   -2.9970   20.1670 C.3   580  SER580      0.2055
     85  C         44.9080   -3.5070   21.5280 C.2   580  SER580      0.2644
     86  O         45.1680   -4.6990   21.6610 O.2   580  SER580     -0.2714
     87  CB        45.6470   -2.9630   19.2220 C.3   580  SER580      0.2130
     88  OG        46.5640   -1.9570   19.6190 O.3   580  SER580     -0.2179
     89  N         45.0340   -2.6120   22.5140 N.am  581  GLY581     -0.1939
     90  CA        45.4580   -2.9640   23.8830 C.3   581  GLY581      0.2014
     91  C         46.8970   -2.6110   24.2490 C.2   581  GLY581      0.2639
     92  O         47.4640   -3.2050   25.1680 O.2   581  GLY581     -0.2714
     93  N         47.4810   -1.6350   23.5480 N.am  582  LYS582     -0.1963
     94  CA        48.8750   -1.2170   23.7750 C.3   582  LYS582      0.1728
     95  C         49.0910   -0.5880   25.1490 C.2   582  LYS582      0.2617
     96  O         50.0560   -0.9210   25.8300 O.2   582  LYS582     -0.2715
     97  CB        49.3260   -0.2240   22.7040 C.3   582  LYS582      0.0311
     98  CG        49.2320   -0.7280   21.2780 C.3   582  LYS582      0.0038
     99  CD        49.8320    0.2650   20.2890 C.3   582  LYS582      0.0206
    100  CE        49.0770    1.5850   20.2120 C.3   582  LYS582      0.1093
    101  NZ        47.6730    1.4180   19.7430 N.3   582  LYS582     -0.1314
    102  N         48.2160    0.3430   25.5350 N.am  583  SER583     -0.1936
    103  CA        48.2900    0.9680   26.8610 C.3   583  SER583      0.2055
    104  C         48.2250   -0.1600   27.8810 C.2   583  SER583      0.2643
    105  O         49.1160   -0.3200   28.7190 O.2   583  SER583     -0.2714
    106  CB        47.0970    1.9100   27.1520 C.3   583  SER583      0.2130
    107  OG        46.7280    2.7380   26.0590 O.3   583  SER583     -0.2179
    108  N         47.1520   -0.9410   27.7780 N.am  584  THR584     -0.1950
    109  CA        46.8800   -2.0370   28.6840 C.3   584  THR584      0.1897
    110  C         48.1280   -2.8970   28.8830 C.2   584  THR584      0.2313
    111  O         48.5940   -3.0690   30.0110 O.2   584  THR584     -0.2863
    112  CB        45.6980   -2.8840   28.1700 C.3   584  THR584      0.1794
    113  OG1       44.6310   -2.0150   27.7730 O.3   584  THR584     -0.2208
    114  CG2       45.2000   -3.8270   29.2410 C.3   584  THR584      0.0378
    115  N         49.3910   -0.6750   31.9460 N.3   588  GLU588     -0.1245
    116  CA        48.4570   -1.2790   32.8990 C.3   588  GLU588      0.1567
    117  C         48.9400   -2.6450   33.4250 C.2   588  GLU588      0.2260
    118  O         48.6160   -3.0150   34.5560 O.2   588  GLU588     -0.2867
    119  CB        47.0780   -1.4260   32.2490 C.3   588  GLU588      0.0388
    120  CG        45.8820   -1.0820   33.1440 C.3   588  GLU588      0.1160
    121  CD        45.5600    0.4220   33.1620 C.2   588  GLU588      0.3649
    122  OE1       46.4700    1.2330   33.4270 O.co2 588  GLU588     -0.2457
    123  OE2       44.3850    0.7860   32.9180 O.co2 588  GLU588     -0.2457
    124  N         55.3150    3.7240   22.8730 N.3   820  ILE820     -0.1245
    125  CA        54.0240    3.3500   22.3020 C.3   820  ILE820      0.1561
    126  C         53.7400    4.3700   21.2080 C.2   820  ILE820      0.2260
    127  O         53.2220    5.4450   21.5020 O.2   820  ILE820     -0.2867
    128  CB        52.8850    3.4000   23.3450 C.3   820  ILE820      0.0252
    129  CG1       53.2800    2.6910   24.6370 C.3   820  ILE820      0.0019
    130  CG2       51.6290    2.7750   22.7700 C.3   820  ILE820      0.0019
    131  CD1       52.2180    2.7750   25.7030 C.3   820  ILE820      0.0001
    132  N         39.2680   -2.9390   19.6670 N.3   841  GLY841     -0.1225
    133  CA        38.1610   -3.4840   20.4470 C.3   841  GLY841      0.1811
    134  C         38.3830   -4.9470   20.7450 C.2   841  GLY841      0.2280
    135  O         39.5150   -5.3670   20.9790 O.2   841  GLY841     -0.2866
@<TRIPOS>BOND
     1    78    77    1
     2    73    74    1
     3    76    75    2
     4    77    74    1
     5    74    75    1
     6    75    79   am
     7    87    88    1
     8    87    84    1
     9     1     2    1
    10     8    10   ar
    11     8     6   ar
    12   132   133    1
    13   101   100    1
    14    10    11   ar
    15    84    83    1
    16    84    85    1
    17     2     5    1
    18     2     3    1
    19     5     6    1
    20    83    81   am
    21   100    99    1
    22    79    80    1
    23    99    98    1
    24   133   134    1
    25     6     7   ar
    26   134   135    2
    27    80    81    1
    28    81    82    2
    29    11    12    1
    30    11     9   ar
    31   126   127    2
    32   126   125    1
    33    98    97    1
    34    85    86    2
    35    85    89   am
    36     3    13   am
    37     3     4    2
    38     7     9   ar
    39    13    14    1
    40    49    48    2
    41   125   124    1
    42   125   128    1
    43    72    70   am
    44    46    47    1
    45    89    90    1
    46    47    48    1
    47    47    50    1
    48    16    15    2
    49    97    94    1
    50   130   128    1
    51    18    20    1
    52    18    19    1
    53    18    17    1
    54    51    50    1
    55    51    52    1
    56   128   129    1
    57    14    15    1
    58    14    17    1
    59    15    21   am
    60    93    94    1
    61    93    91   am
    62    70    69    1
    63    70    71    2
    64    94    95    1
    65    54    52   ar
    66    90    91    1
    67    68    67    2
    68    52    53   ar
    69    91    92    2
    70    69    66    1
    71   129   131    1
    72    21    22    1
    73    22    23    1
    74    22    25    1
    75    95   102   am
    76    95    96    2
    77    67    66    1
    78    23    24    2
    79    66    65    1
    80   102   103    1
    81    27    25    1
    82   107   106    1
    83    25    26    1
    84    65    57   am
    85    37    36    1
    86   103   106    1
    87   103   104    1
    88    38    36    1
    89    36    35    2
    90   113   112    1
    91   108   104   am
    92   108   109    1
    93   104   105    2
    94    57    58    2
    95    57    56    1
    96   112   109    1
    97   112   114    1
    98    32    33    1
    99    32    29    1
   100    59    56    1
   101    59    60    1
   102    33    34    1
   103   109   110    1
   104    35    34    1
   105   110   111    2
   106    56    55    1
   107    28    29    1
   108    60    61   ar
   109    60    62   ar
   110    29    30    1
   111    31    30    2
   112    42    41    2
   113    61    63   ar
   114    41    40    1
   115    62    64   ar
   116    44    43    1
   117    63    64   ar
   118    40    43    1
   119    40    39    1
   120   115   116    1
   121    43    45    1
   122   119   116    1
   123   119   120    1
   124   116   117    1
   125   123   121   ar
   126   120   121    1
   127   121   122   ar
   128   117   118    2
