@<TRIPOS>MOLECULE
tmp/2r6gA00.pdb
 91 85 0 0 0
SMALL
GASTEIGER

@<TRIPOS>ATOM
      1  N          8.7050   16.1800   20.7320 N.3   125  LEU125     -0.1245
      2  CA         7.3410   16.7300   20.7750 C.3   125  LEU125      0.1561
      3  C          6.6360   16.5300   22.1190 C.2   125  LEU125      0.2260
      4  O          5.4320   16.7610   22.2300 O.2   125  LEU125     -0.2867
      5  CB         6.4840   16.1060   19.6670 C.3   125  LEU125      0.0270
      6  CG         6.9540   16.2330   18.2180 C.3   125  LEU125      0.0019
      7  CD1        6.4580   15.0590   17.3960 C.3   125  LEU125      0.0001
      8  CD2        6.5340   17.5600   17.5990 C.3   125  LEU125      0.0001
      9  N          4.2150   19.1690   23.6910 N.3   128  ARG128     -0.1245
     10  CA         3.1290   19.6350   22.8230 C.3   128  ARG128      0.1563
     11  C          1.7730   19.0810   23.2280 C.2   128  ARG128      0.2260
     12  O          1.6750   17.9670   23.7380 O.2   128  ARG128     -0.2867
     13  CB         3.3910   19.2410   21.3660 C.3   128  ARG128      0.0307
     14  CG         4.6850   19.7640   20.7750 C.3   128  ARG128      0.0489
     15  CD         4.5140   21.1330   20.1410 C.3   128  ARG128      0.2205
     16  NE         5.6610   21.4670   19.3020 N.pl3 128  ARG128     -0.0865
     17  CZ         5.7640   21.1630   18.0110 C.cat 128  ARG128      0.5346
     18  NH1        4.7820   20.5230   17.3910 N.pl3 128  ARG128      0.1354
     19  NH2        6.8530   21.5080   17.3360 N.pl3 128  ARG128      0.1354
     20  N         -3.2990   19.8350   19.4740 N.3   131  LYS131     -0.1231
     21  CA        -3.5380   20.8560   18.4470 C.3   131  LYS131      0.1693
     22  C         -2.2530   21.4640   17.8730 C.2   131  LYS131      0.2592
     23  O         -2.2640   22.0020   16.7670 O.2   131  LYS131     -0.2718
     24  CB        -4.5370   21.9280   18.9130 C.3   131  LYS131      0.0285
     25  CG        -4.1400   22.7420   20.1360 C.3   131  LYS131      0.0035
     26  CD        -5.2320   23.7590   20.4660 C.3   131  LYS131      0.0206
     27  CE        -4.8340   24.6960   21.5990 C.3   131  LYS131      0.1093
     28  NZ        -4.8930   24.0530   22.9420 N.3   131  LYS131     -0.1314
     29  N         -1.1550   21.3640   18.6210 N.am  132  ALA132     -0.1966
     30  CA         0.1630   21.7950   18.1420 C.3   132  ALA132      0.1728
     31  C          0.9750   20.6350   17.5350 C.2   132  ALA132      0.2616
     32  O          2.1980   20.7310   17.3800 O.2   132  ALA132     -0.2715
     33  CB         0.9420   22.4760   19.2620 C.3   132  ALA132      0.0334
     34  N          0.2860   19.5490   17.1920 N.am  133  LEU133     -0.1963
     35  CA         0.9040   18.3980   16.5390 C.3   133  LEU133      0.1728
     36  C          0.3190   18.1810   15.1500 C.2   133  LEU133      0.2617
     37  O         -0.6990   18.7770   14.7940 O.2   133  LEU133     -0.2715
     38  CB         0.6930   17.1310   17.3690 C.3   133  LEU133      0.0311
     39  CG         1.3670   16.9970   18.7320 C.3   133  LEU133      0.0022
     40  CD1        0.7250   15.8550   19.4840 C.3   133  LEU133      0.0001
     41  CD2        2.8650   16.7750   18.5930 C.3   133  LEU133      0.0001
     42  N          0.9660   17.3190   14.3710 N.am  134  SER134     -0.1936
     43  CA         0.4600   16.9430   13.0590 C.3   134  SER134      0.2055
     44  C         -0.4340   15.7050   13.1660 C.2   134  SER134      0.2644
     45  O         -0.3290   14.9400   14.1250 O.2   134  SER134     -0.2714
     46  CB         1.6190   16.6860   12.1000 C.3   134  SER134      0.2130
     47  OG         2.2070   15.4200   12.3270 O.3   134  SER134     -0.2179
     48  N         -1.3050   15.5150   12.1780 N.am  135  GLY135     -0.1939
     49  CA        -2.2110   14.3680   12.1450 C.3   135  GLY135      0.2014
     50  C         -1.5020   13.0320   12.2810 C.2   135  GLY135      0.2639
     51  O         -2.0200   12.1020   12.9090 O.2   135  GLY135     -0.2714
     52  N         -0.3130   12.9420   11.6880 N.am  136  GLY136     -0.1939
     53  CA         0.5350   11.7620   11.8140 C.3   136  GLY136      0.2014
     54  C          1.1960   11.6590   13.1760 C.2   136  GLY136      0.2638
     55  O          1.3630   10.5620   13.7110 O.2   136  GLY136     -0.2714
     56  N          1.5760   12.8040   13.7360 N.am  137  GLN137     -0.1977
     57  CA         2.1670   12.8490   15.0730 C.3   137  GLN137      0.1601
     58  C          1.1470   12.4510   16.1380 C.2   137  GLN137      0.2287
     59  O          1.4680   11.7130   17.0700 O.2   137  GLN137     -0.2864
     60  CB         2.7500   14.2320   15.3670 C.3   137  GLN137      0.0394
     61  CG         4.0560   14.5080   14.6400 C.3   137  GLN137      0.0908
     62  CD         4.4730   15.9700   14.6820 C.2   137  GLN137      0.2608
     63  OE1        3.7810   16.8190   15.2460 O.2   137  GLN137     -0.2717
     64  NE2        5.6170   16.2680   14.0840 N.am  137  GLN137     -0.0878
     65  N          0.7650    8.6610   16.3500 N.3   140  ARG140     -0.1245
     66  CA         1.8120    8.0240   17.1540 C.3   140  ARG140      0.1563
     67  C          1.6460    8.2940   18.6490 C.2   140  ARG140      0.2260
     68  O          2.1110    7.5080   19.4800 O.2   140  ARG140     -0.2867
     69  CB         3.1980    8.4570   16.6760 C.3   140  ARG140      0.0307
     70  CG         3.6860    7.6960   15.4550 C.3   140  ARG140      0.0489
     71  CD         4.1230    8.6470   14.3580 C.3   140  ARG140      0.2205
     72  NE         5.4240    9.2520   14.6140 N.pl3 140  ARG140     -0.0865
     73  CZ         5.7800   10.4660   14.2060 C.cat 140  ARG140      0.5346
     74  NH1        4.9220   11.2280   13.5330 N.pl3 140  ARG140      0.1354
     75  NH2        6.9950   10.9250   14.4850 N.pl3 140  ARG140      0.1354
     76  N         -1.9520    7.4490    8.5030 N.3   162  ASN162     -0.1240
     77  CA        -1.4980    8.8060    8.1970 C.3   162  ASN162      0.1653
     78  C         -0.0040    9.0180    8.4200 C.2   162  ASN162      0.2266
     79  O          0.4180   10.0690    8.9140 O.2   162  ASN162     -0.2867
     80  CB        -2.3050    9.8210    9.0070 C.3   162  ASN162      0.1155
     81  CG        -3.7820    9.7520    8.7090 C.2   162  ASN162      0.2627
     82  OD1       -4.2650   10.3670    7.7570 O.2   162  ASN162     -0.2716
     83  ND2       -4.5120    8.9990    9.5210 N.am  162  ASN162     -0.0877
     84  N          4.1000    8.4280    6.6640 N.3   164  ASP164     -0.1239
     85  CA         4.9190    8.2150    5.4730 C.3   164  ASP164      0.1674
     86  C          5.4380    6.7840    5.3870 C.2   164  ASP164      0.2266
     87  O          5.6290    6.1240    6.4110 O.2   164  ASP164     -0.2867
     88  CB         6.0850    9.2070    5.4330 C.3   164  ASP164      0.1410
     89  CG         6.9060    9.2020    6.7130 C.2   164  ASP164      0.3668
     90  OD1        6.3520    9.5480    7.7800 O.co2 164  ASP164     -0.2456
     91  OD2        8.1110    8.8710    6.6480 O.co2 164  ASP164     -0.2456
@<TRIPOS>BOND
     1    86    85    1
     2    86    87    2
     3    88    85    1
     4    88    89    1
     5    85    84    1
     6    91    89   ar
     7    89    90   ar
     8    82    81    2
     9    77    78    1
    10    77    76    1
    11    77    80    1
    12    78    79    2
    13    81    80    1
    14    81    83   am
    15    52    53    1
    16    52    50   am
    17    53    54    1
    18    46    47    1
    19    46    43    1
    20    49    48    1
    21    49    50    1
    22    48    44   am
    23    50    51    2
    24    43    44    1
    25    43    42    1
    26    44    45    2
    27    54    55    2
    28    54    56   am
    29    74    73    1
    30    56    57    1
    31    64    62   am
    32    73    75    1
    33    73    72    2
    34    71    72    1
    35    71    70    1
    36    42    36   am
    37    61    62    1
    38    61    60    1
    39    62    63    2
    40    37    36    2
    41    57    60    1
    42    57    58    1
    43    36    35    1
    44    70    69    1
    45    58    59    2
    46    65    66    1
    47    35    34    1
    48    35    38    1
    49    69    66    1
    50    23    22    2
    51    66    67    1
    52    34    31   am
    53    19    17    1
    54    38    39    1
    55    32    31    2
    56    18    17    1
    57     7     6    1
    58    31    30    1
    59     8     6    1
    60    22    21    1
    61    22    29   am
    62    17    16    2
    63    30    29    1
    64    30    33    1
    65     6     5    1
    66    21    24    1
    67    21    20    1
    68    41    39    1
    69    67    68    2
    70    39    40    1
    71    24    25    1
    72    16    15    1
    73     5     2    1
    74    25    26    1
    75    15    14    1
    76    26    27    1
    77     1     2    1
    78    14    13    1
    79     2     3    1
    80    13    10    1
    81    27    28    1
    82     3     4    2
    83    10    11    1
    84    10     9    1
    85    11    12    2
