@<TRIPOS>MOLECULE
tmp/2r6gD00.pdb
 97 90 0 0 0
SMALL
GASTEIGER

@<TRIPOS>ATOM
      1  N        -38.8960   40.5520   24.4530 N.3   277  THR277     -0.1218
      2  CA       -37.7610   40.7750   25.3420 C.3   277  THR277      0.1862
      3  C        -36.7630   39.6520   25.1150 C.2   277  THR277      0.2287
      4  O        -35.5950   39.9100   24.8570 O.2   277  THR277     -0.2866
      5  CB       -38.1680   40.8350   26.8280 C.3   277  THR277      0.1770
      6  OG1      -38.9390   42.0190   27.0600 O.3   277  THR277     -0.2211
      7  CG2      -36.9370   40.8690   27.7260 C.3   277  THR277      0.0375
      8  N        -33.2120   40.3950   23.5650 N.3   281  THR281     -0.1218
      9  CA       -32.1970   40.0810   24.5650 C.3   281  THR281      0.1862
     10  C        -31.2030   39.0420   24.0360 C.2   281  THR281      0.2287
     11  O        -29.9910   39.2130   24.1730 O.2   281  THR281     -0.2866
     12  CB       -32.8640   39.6180   25.8860 C.3   281  THR281      0.1770
     13  OG1      -33.6270   40.6990   26.4330 O.3   281  THR281     -0.2211
     14  CG2      -31.8430   39.1870   26.9100 C.3   281  THR281      0.0375
     15  N        -25.3350   45.2030   33.8610 N.3   311  TYR311     -0.1241
     16  CA       -25.6640   44.0620   34.7150 C.3   311  TYR311      0.1605
     17  C        -24.8730   44.1060   36.0260 C.2   311  TYR311      0.2264
     18  O        -25.2760   43.5040   37.0240 O.2   311  TYR311     -0.2867
     19  CB       -25.3850   42.7600   33.9620 C.3   311  TYR311      0.0534
     20  CG       -26.1830   41.5500   34.4030 C.ar  311  TYR311     -0.0201
     21  CD1      -27.4890   41.6750   34.8810 C.ar  311  TYR311     -0.0009
     22  CD2      -25.6400   40.2690   34.2990 C.ar  311  TYR311     -0.0009
     23  CE1      -28.2200   40.5570   35.2740 C.ar  311  TYR311      0.0417
     24  CE2      -26.3660   39.1450   34.6800 C.ar  311  TYR311      0.0417
     25  CZ       -27.6550   39.2970   35.1650 C.ar  311  TYR311      0.1957
     26  OH       -28.3680   38.1870   35.5490 O.3   311  TYR311     -0.2866
     27  N        -30.3400   46.6160   39.4860 N.3   315  SER315     -0.1217
     28  CA       -31.4760   47.0430   38.6630 C.3   315  SER315      0.1889
     29  C        -32.2290   48.2480   39.2230 C.2   315  SER315      0.2288
     30  O        -32.4830   49.2110   38.4990 O.2   315  SER315     -0.2866
     31  CB       -32.4510   45.8810   38.4440 C.3   315  SER315      0.2089
     32  OG       -32.0170   45.0490   37.3840 O.3   315  SER315     -0.2183
     33  N        -35.7960   46.9500   29.3190 N.3   362  ASN362     -0.1240
     34  CA       -35.5760   45.5360   29.6200 C.3   362  ASN362      0.1653
     35  C        -34.4790   44.9120   28.7490 C.2   362  ASN362      0.2266
     36  O        -33.7380   44.0390   29.2070 O.2   362  ASN362     -0.2867
     37  CB       -36.8820   44.7500   29.4800 C.3   362  ASN362      0.1155
     38  CG       -37.0220   43.6470   30.5210 C.2   362  ASN362      0.2627
     39  OD1      -36.3270   43.6400   31.5410 O.2   362  ASN362     -0.2716
     40  ND2      -37.9400   42.7180   30.2760 N.am  362  ASN362     -0.0877
     41  N        -31.4270   46.0980   30.1640 N.3   365  LEU365     -0.1231
     42  CA       -31.3170   45.4560   31.4620 C.3   365  LEU365      0.1693
     43  C        -30.9320   43.9790   31.3650 C.2   365  LEU365      0.2592
     44  O        -30.3070   43.4330   32.2800 O.2   365  LEU365     -0.2718
     45  CB       -32.6470   45.6060   32.2040 C.3   365  LEU365      0.0284
     46  CG       -32.6760   45.6490   33.7320 C.3   365  LEU365      0.0019
     47  CD1      -31.6520   46.6260   34.3130 C.3   365  LEU365      0.0001
     48  CD2      -34.0830   46.0080   34.1860 C.3   365  LEU365      0.0001
     49  N        -31.2940   43.3430   30.2530 N.am  366  GLY366     -0.1957
     50  CA       -31.1800   41.8950   30.1300 C.3   366  GLY366      0.1869
     51  C        -30.2230   41.3430   29.0910 C.2   366  GLY366      0.2309
     52  O        -29.9130   40.1500   29.1220 O.2   366  GLY366     -0.2863
     53  N        -26.9730   39.4810   30.2340 N.3   369  TYR369     -0.1241
     54  CA       -27.2520   38.1190   30.6820 C.3   369  TYR369      0.1605
     55  C        -27.0510   37.1060   29.5540 C.2   369  TYR369      0.2264
     56  O        -26.4070   36.0760   29.7540 O.2   369  TYR369     -0.2867
     57  CB       -28.6710   38.0110   31.2500 C.3   369  TYR369      0.0534
     58  CG       -29.0850   36.6020   31.6140 C.ar  369  TYR369     -0.0201
     59  CD1      -28.6030   35.9920   32.7710 C.ar  369  TYR369     -0.0009
     60  CD2      -29.9650   35.8790   30.8060 C.ar  369  TYR369     -0.0009
     61  CE1      -28.9750   34.6970   33.1110 C.ar  369  TYR369      0.0417
     62  CE2      -30.3470   34.5810   31.1390 C.ar  369  TYR369      0.0417
     63  CZ       -29.8470   33.9990   32.2930 C.ar  369  TYR369      0.1957
     64  OH       -30.2160   32.7210   32.6340 O.3   369  TYR369     -0.2866
     65  N        -36.3570   32.3980   30.5000 N.3   419  SER419     -0.1217
     66  CA       -36.3280   33.8530   30.4460 C.3   419  SER419      0.1889
     67  C        -37.7000   34.4120   30.0880 C.2   419  SER419      0.2288
     68  O        -38.0490   35.5190   30.5020 O.2   419  SER419     -0.2866
     69  CB       -35.2860   34.3410   29.4460 C.3   419  SER419      0.2089
     70  OG       -35.1350   35.7470   29.5330 O.3   419  SER419     -0.2183
     71  N        -39.4890   34.2800   33.4270 N.3   422  PHE422     -0.1227
     72  CA       -38.9700   35.3250   34.3000 C.3   422  PHE422      0.1736
     73  C        -39.6100   36.6680   33.9580 C.2   422  PHE422      0.2595
     74  O        -40.1080   37.3660   34.8410 O.2   422  PHE422     -0.2718
     75  CB       -37.4430   35.4110   34.1930 C.3   422  PHE422      0.0547
     76  CG       -36.8300   36.4820   35.0560 C.ar  422  PHE422     -0.0202
     77  CD1      -36.5820   37.7540   34.5410 C.ar  422  PHE422     -0.0042
     78  CD2      -36.4980   36.2200   36.3830 C.ar  422  PHE422     -0.0042
     79  CE1      -36.0170   38.7500   35.3340 C.ar  422  PHE422     -0.0003
     80  CE2      -35.9300   37.2080   37.1870 C.ar  422  PHE422     -0.0003
     81  CZ       -35.6890   38.4760   36.6620 C.ar  422  PHE422     -0.0000
     82  N        -39.5980   37.0130   32.6720 N.am  423  ASN423     -0.1974
     83  CA       -40.1670   38.2720   32.1960 C.3   423  ASN423      0.1688
     84  C        -41.6930   38.2520   32.0770 C.2   423  ASN423      0.2292
     85  O        -42.3180   39.2900   31.8410 O.2   423  ASN423     -0.2864
     86  CB       -39.5230   38.6860   30.8700 C.3   423  ASN423      0.1181
     87  CG       -38.0850   39.1320   31.0360 C.2   423  ASN423      0.2629
     88  OD1      -37.7880   40.0460   31.8090 O.2   423  ASN423     -0.2716
     89  ND2      -37.1800   38.4930   30.3020 N.am  423  ASN423     -0.0877
     90  N        -42.1440   39.8220   35.5760 N.3   426  ASN426     -0.1240
     91  CA       -41.1480   40.8270   35.9380 C.3   426  ASN426      0.1653
     92  C        -41.8110   42.0110   36.6400 C.2   426  ASN426      0.2266
     93  O        -41.8870   43.1170   36.0980 O.2   426  ASN426     -0.2867
     94  CB       -40.3460   41.2780   34.7110 C.3   426  ASN426      0.1155
     95  CG       -38.9560   41.7990   35.0740 C.2   426  ASN426      0.2627
     96  OD1      -38.7660   42.4530   36.1010 O.2   426  ASN426     -0.2716
     97  ND2      -37.9780   41.5100   34.2200 N.am  426  ASN426     -0.0877
@<TRIPOS>BOND
     1     8     9    1
     2    10    11    2
     3    10     9    1
     4     1     2    1
     5     9    12    1
     6     4     3    2
     7     3     2    1
     8     2     5    1
     9    12    13    1
    10    12    14    1
    11     5     6    1
    12     5     7    1
    13    35    36    2
    14    35    34    1
    15    51    52    2
    16    51    50    1
    17    33    34    1
    18    69    70    1
    19    69    66    1
    20    37    34    1
    21    37    38    1
    22    55    56    2
    23    55    54    1
    24    67    66    1
    25    67    68    2
    26    50    49    1
    27    41    42    1
    28    53    54    1
    29    49    43   am
    30    40    38   am
    31    89    87   am
    32    66    65    1
    33    38    39    2
    34    54    57    1
    35    60    62   ar
    36    60    58   ar
    37    86    87    1
    38    86    83    1
    39    87    88    2
    40    62    63   ar
    41    57    58    1
    42    43    42    1
    43    43    44    2
    44    42    45    1
    45    58    59   ar
    46    85    84    2
    47    84    83    1
    48    83    82    1
    49    45    46    1
    50    63    64    1
    51    63    61   ar
    52    82    73   am
    53    59    61   ar
    54    71    72    1
    55    46    48    1
    56    46    47    1
    57    15    16    1
    58    73    72    1
    59    73    74    2
    60    19    20    1
    61    19    16    1
    62    75    72    1
    63    75    76    1
    64    97    95   am
    65    22    20   ar
    66    22    24   ar
    67    20    21   ar
    68    77    76   ar
    69    77    79   ar
    70    24    25   ar
    71    94    95    1
    72    94    91    1
    73    16    17    1
    74    21    23   ar
    75    76    78   ar
    76    95    96    2
    77    25    23   ar
    78    25    26    1
    79    79    81   ar
    80    90    91    1
    81    91    92    1
    82    17    18    2
    83    93    92    2
    84    78    80   ar
    85    81    80   ar
    86    32    31    1
    87    31    28    1
    88    30    29    2
    89    28    29    1
    90    28    27    1
