@<TRIPOS>MOLECULE
tmp/2r6gA01.pdb
 109 104 0 0 0
SMALL
GASTEIGER

@<TRIPOS>ATOM
      1  N        -28.3400   -1.1060   14.8690 N.3    12  TRP12      -0.1241
      2  CA       -28.7930    0.2360   15.2230 C.3    12  TRP12       0.1605
      3  C        -30.2630    0.3650   14.8290 C.2    12  TRP12       0.2264
      4  O        -30.6170    1.0860   13.8900 O.2    12  TRP12      -0.2867
      5  CB       -27.9340    1.3030   14.5350 C.3    12  TRP12       0.0550
      6  CG       -26.4600    1.1730   14.8260 C.ar   12  TRP12       0.0003
      7  CD1      -25.5190    0.5650   14.0410 C.ar   12  TRP12       0.0946
      8  CD2      -25.7640    1.6560   15.9830 C.ar   12  TRP12       0.0152
      9  NE1      -24.2830    0.6410   14.6340 N.ar   12  TRP12      -0.2442
     10  CE2      -24.4020    1.3060   15.8270 C.ar   12  TRP12       0.0810
     11  CE3      -26.1580    2.3530   17.1350 C.ar   12  TRP12       0.0012
     12  CZ2      -23.4270    1.6290   16.7830 C.ar   12  TRP12       0.0191
     13  CZ3      -25.1900    2.6750   18.0860 C.ar   12  TRP12       0.0001
     14  CH2      -23.8400    2.3100   17.9020 C.ar   12  TRP12       0.0015
     15  N        -30.7360   -0.8640   10.9690 N.3    15  VAL15      -0.1245
     16  CA       -29.4330   -1.0770   10.3310 C.3    15  VAL15       0.1561
     17  C        -28.6080   -2.1130   11.1020 C.2    15  VAL15       0.2260
     18  O        -28.1600   -1.8560   12.2240 O.2    15  VAL15      -0.2867
     19  CB       -28.6430    0.2570   10.1850 C.3    15  VAL15       0.0252
     20  CG1      -27.2290    0.0120    9.6490 C.3    15  VAL15       0.0019
     21  CG2      -29.3960    1.2340    9.2840 C.3    15  VAL15       0.0019
     22  N        -25.2200   -3.9430   11.1060 N.3    17  VAL17      -0.1245
     23  CA       -23.8670   -3.8950   10.5400 C.3    17  VAL17       0.1561
     24  C        -22.9210   -4.9500   11.1410 C.2    17  VAL17       0.2260
     25  O        -21.7020   -4.9100   10.9330 O.2    17  VAL17      -0.2867
     26  CB       -23.2680   -2.4620   10.5890 C.3    17  VAL17       0.0252
     27  CG1      -22.8040   -2.0950   12.0040 C.3    17  VAL17       0.0019
     28  CG2      -22.1420   -2.3230    9.5620 C.3    17  VAL17       0.0019
     29  N        -14.4420   -0.1160    3.4960 N.3    37  SER37      -0.1202
     30  CA       -14.9120    1.0120    4.2850 C.3    37  SER37       0.2020
     31  C        -16.4180    0.8600    4.5050 C.2    37  SER37       0.2619
     32  O        -17.1930    0.8240    3.5480 O.2    37  SER37      -0.2717
     33  CB       -14.5950    2.3360    3.5830 C.3    37  SER37       0.2103
     34  OG       -15.0510    3.4450    4.3400 O.3    37  SER37      -0.2182
     35  N        -16.8170    0.7310    5.7670 N.am   38  GLY38      -0.1942
     36  CA       -18.2260    0.6050    6.1090 C.3    38  GLY38       0.2014
     37  C        -18.6680   -0.7590    6.6060 C.2    38  GLY38       0.2639
     38  O        -19.7910   -0.9000    7.0860 O.2    38  GLY38      -0.2714
     39  N        -17.7910   -1.7570    6.5030 N.am   39  CYS39      -0.1953
     40  CA       -18.1480   -3.1520    6.8080 C.3    39  CYS39       0.1843
     41  C        -18.4440   -3.4230    8.2920 C.2    39  CYS39       0.2626
     42  O        -19.2350   -4.3130    8.6190 O.2    39  CYS39      -0.2714
     43  CB       -17.0770   -4.1200    6.2890 C.3    39  CYS39       0.0997
     44  SG       -15.4580   -3.9750    7.0980 S.3    39  CYS39      -0.0797
     45  N        -17.8100   -2.6540    9.1760 N.am   40  GLY40      -0.1940
     46  CA       -18.0600   -2.7560   10.6120 C.3    40  GLY40       0.2014
     47  C        -16.8620   -3.2350   11.4080 C.2    40  GLY40       0.2639
     48  O        -17.0170   -3.9740   12.3790 O.2    40  GLY40      -0.2714
     49  N        -15.6700   -2.8110   10.9970 N.am   41  LYS41      -0.1963
     50  CA       -14.4320   -3.1810   11.6750 C.3    41  LYS41       0.1728
     51  C        -14.3190   -2.4900   13.0280 C.2    41  LYS41       0.2617
     52  O        -14.0580   -3.1410   14.0430 O.2    41  LYS41      -0.2715
     53  CB       -13.2130   -2.8350   10.8150 C.3    41  LYS41       0.0311
     54  CG       -13.1370   -3.5830    9.4920 C.3    41  LYS41       0.0038
     55  CD       -11.9060   -3.2040    8.6790 C.3    41  LYS41       0.0206
     56  CE       -11.9180   -1.7360    8.2550 C.3    41  LYS41       0.1093
     57  NZ       -12.9080   -1.4630    7.1850 N.3    41  LYS41      -0.1314
     58  N        -14.5190   -1.1730   13.0340 N.am   42  SER42      -0.1936
     59  CA       -14.4220   -0.3730   14.2520 C.3    42  SER42       0.2055
     60  C        -15.4400   -0.8370   15.2920 C.2    42  SER42       0.2643
     61  O        -15.1240   -0.9300   16.4760 O.2    42  SER42      -0.2714
     62  CB       -14.5980    1.1170   13.9400 C.3    42  SER42       0.2130
     63  OG       -13.6110    1.5760   13.0250 O.3    42  SER42      -0.2179
     64  N        -16.6490   -1.1520   14.8330 N.am   43  THR43      -0.1950
     65  CA       -17.7220   -1.6290   15.7020 C.3    43  THR43       0.1897
     66  C        -17.2840   -2.8680   16.4750 C.2    43  THR43       0.2313
     67  O        -17.4310   -2.9240   17.7000 O.2    43  THR43      -0.2863
     68  CB       -19.0030   -1.9360   14.8960 C.3    43  THR43       0.1794
     69  OG1      -19.3820   -0.7770   14.1480 O.3    43  THR43      -0.2208
     70  CG2      -20.1470   -2.3230   15.8150 C.3    43  THR43       0.0378
     71  N        -14.9750   -1.8720   19.0640 N.3    46  ARG46      -0.1245
     72  CA       -15.6740   -1.1120   20.0960 C.3    46  ARG46       0.1563
     73  C        -16.5400   -1.9890   21.0010 C.2    46  ARG46       0.2260
     74  O        -16.6790   -1.7030   22.1920 O.2    46  ARG46      -0.2867
     75  CB       -16.5040    0.0070   19.4670 C.3    46  ARG46       0.0307
     76  CG       -15.6620    1.0970   18.8170 C.3    46  ARG46       0.0489
     77  CD       -16.5200    2.1690   18.1600 C.3    46  ARG46       0.2205
     78  NE       -17.4270    2.8050   19.1110 N.pl3  46  ARG46      -0.0865
     79  CZ       -17.0650    3.7160   20.0100 C.cat  46  ARG46       0.5346
     80  NH1      -15.7990    4.1140   20.0980 N.pl3  46  ARG46       0.1354
     81  NH2      -17.9750    4.2280   20.8310 N.pl3  46  ARG46       0.1354
     82  N         -9.3830    4.9110   15.7880 N.3    81  GLN81      -0.1245
     83  CA        -9.3140    5.3060   14.3760 C.3    81  GLN81       0.1566
     84  C         -9.3770    6.8250   14.2490 C.2    81  GLN81       0.2260
     85  O         -8.7250    7.4090   13.3780 O.2    81  GLN81      -0.2867
     86  CB       -10.4330    4.6430   13.5620 C.3    81  GLN81       0.0367
     87  CG       -10.6860    5.2870   12.2030 C.3    81  GLN81       0.0905
     88  CD       -11.2540    4.3360   11.1780 C.2    81  GLN81       0.2608
     89  OE1      -11.3870    4.6930   10.0090 O.2    81  GLN81      -0.2717
     90  NE2      -11.5860    3.1180   11.6000 N.am   81  GLN81      -0.0878
     91  N         -6.6890    1.1420   12.5720 N.3   158  GLN158     -0.1245
     92  CA        -6.0250    1.8880   11.4870 C.3   158  GLN158      0.1566
     93  C         -4.9510    2.8560   11.9860 C.2   158  GLN158      0.2260
     94  O         -5.0290    4.0570   11.7230 O.2   158  GLN158     -0.2867
     95  CB        -7.0570    2.6310   10.6360 C.3   158  GLN158      0.0367
     96  CG        -8.1100    1.7400   10.0030 C.3   158  GLN158      0.0905
     97  CD        -8.9190    2.4660    8.9510 C.2   158  GLN158      0.2608
     98  OE1       -8.3880    3.3010    8.2140 O.2   158  GLN158     -0.2717
     99  NE2      -10.2100    2.1500    8.8690 N.am  158  GLN158     -0.0878
    100  N         -6.1240   -0.9720    6.4750 N.3   191  HIS191     -0.1241
    101  CA        -6.5320   -1.0450    5.0750 C.3   191  HIS191      0.1621
    102  C         -5.3250   -1.3530    4.1950 C.2   191  HIS191      0.2264
    103  O         -5.4750   -1.8110    3.0620 O.2   191  HIS191     -0.2867
    104  CB        -7.2030    0.2550    4.6260 C.3   191  HIS191      0.0745
    105  CG        -8.6290    0.3890    5.0640 C.ar  191  HIS191      0.0817
    106  ND1       -9.6160   -0.4920    4.6760 N.ar  191  HIS191     -0.2268
    107  CD2       -9.2400    1.3160    5.8390 C.ar  191  HIS191      0.1154
    108  CE1      -10.7710   -0.1170    5.1970 C.ar  191  HIS191      0.1986
    109  NE2      -10.5700    0.9760    5.9110 N.ar  191  HIS191     -0.2212
@<TRIPOS>BOND
     1   103   102    2
     2    29    30    1
     3    32    31    2
     4    33    30    1
     5    33    34    1
     6   102   101    1
     7    30    31    1
     8    31    35   am
     9   104   105    1
    10   104   101    1
    11   106   105   ar
    12   106   108   ar
    13   105   107   ar
    14   101   100    1
    15   108   109   ar
    16    35    36    1
    17   107   109   ar
    18    36    37    1
    19    43    40    1
    20    43    44    1
    21    39    37   am
    22    39    40    1
    23    37    38    2
    24    40    41    1
    25    57    56    1
    26    98    97    2
    27    56    55    1
    28    41    42    2
    29    41    45   am
    30    55    54    1
    31    99    97   am
    32    97    96    1
    33    45    46    1
    34    21    19    1
    35    54    53    1
    36    28    26    1
    37    20    19    1
    38    96    95    1
    39    89    88    2
    40    19    16    1
    41    16    15    1
    42    16    17    1
    43    23    26    1
    44    23    22    1
    45    23    24    1
    46    26    27    1
    47    46    47    1
    48    95    92    1
    49    53    50    1
    50    25    24    2
    51    49    47   am
    52    49    50    1
    53    17    18    2
    54    88    90   am
    55    88    87    1
    56    47    48    2
    57    92    93    1
    58    92    91    1
    59    50    51    1
    60    94    93    2
    61    87    86    1
    62    63    62    1
    63    51    58   am
    64    51    52    2
    65    58    59    1
    66    85    84    2
    67    86    83    1
    68     4     3    2
    69    62    59    1
    70     7     9   ar
    71     7     6   ar
    72    69    68    1
    73    84    83    1
    74    59    60    1
    75    83    82    1
    76     5     6    1
    77     5     2    1
    78     9    10   ar
    79     6     8   ar
    80     3     2    1
    81    64    60   am
    82    64    65    1
    83     1     2    1
    84    68    65    1
    85    68    70    1
    86    60    61    2
    87    65    66    1
    88    10     8   ar
    89    10    12   ar
    90     8    11   ar
    91    66    67    2
    92    12    14   ar
    93    11    13   ar
    94    14    13   ar
    95    77    76    1
    96    77    78    1
    97    76    75    1
    98    71    72    1
    99    78    79    2
   100    75    72    1
   101    79    80    1
   102    79    81    1
   103    72    73    1
   104    73    74    2
