@<TRIPOS>MOLECULE
tmp/2r6hC00.pdb
 184 181 0 0 0
SMALL
GASTEIGER

@<TRIPOS>ATOM
      1  N        101.5560   31.1650  162.7120 N.3    42  TYR42      -0.1241
      2  CA       102.4630   30.0480  162.5200 C.3    42  TYR42       0.1605
      3  C        103.6610   30.0840  163.4410 C.2    42  TYR42       0.2264
      4  O        103.8460   31.0350  164.1850 O.2    42  TYR42      -0.2867
      5  CB       102.9370   29.9950  161.0760 C.3    42  TYR42       0.0534
      6  CG       103.7790   31.1560  160.6100 C.ar   42  TYR42      -0.0201
      7  CD1      103.1980   32.2450  159.9910 C.ar   42  TYR42      -0.0009
      8  CD2      105.1700   31.1390  160.7430 C.ar   42  TYR42      -0.0009
      9  CE1      103.9680   33.3120  159.5350 C.ar   42  TYR42       0.0417
     10  CE2      105.9530   32.1970  160.2880 C.ar   42  TYR42       0.0417
     11  CZ       105.3380   33.2850  159.6790 C.ar   42  TYR42       0.1957
     12  OH       106.0790   34.3480  159.2130 O.3    42  TYR42      -0.2866
     13  N        112.1640   27.1370  159.1980 N.3    84  ARG84      -0.1231
     14  CA       111.0250   27.0370  158.2840 C.3    84  ARG84       0.1694
     15  C        109.7210   27.1890  159.0340 C.2    84  ARG84       0.2592
     16  O        109.6270   26.8090  160.1950 O.2    84  ARG84      -0.2718
     17  CB       111.0520   25.7090  157.5350 C.3    84  ARG84       0.0321
     18  CG       110.1870   25.6700  156.2950 C.3    84  ARG84       0.0489
     19  CD       110.8120   26.4120  155.1220 C.3    84  ARG84       0.2205
     20  NE       111.8700   25.6700  154.4250 N.pl3  84  ARG84      -0.0865
     21  CZ       113.1770   25.8740  154.5980 C.cat  84  ARG84       0.5346
     22  NH1      113.5920   26.7800  155.4660 N.pl3  84  ARG84       0.1354
     23  NH2      114.0720   25.1690  153.9130 N.pl3  84  ARG84       0.1354
     24  N        108.7150   27.7410  158.3650 N.am   85  ALA85      -0.1966
     25  CA       107.4470   28.0870  159.0070 C.3    85  ALA85       0.1728
     26  C        106.3870   27.0020  158.8630 C.2    85  ALA85       0.2616
     27  O        106.2620   26.3720  157.8060 O.2    85  ALA85      -0.2715
     28  CB       106.9260   29.3820  158.4410 C.3    85  ALA85       0.0334
     29  N        105.6300   26.7890  159.9410 N.am   86  TYR86      -0.1960
     30  CA       104.5170   25.8380  159.9590 C.3    86  TYR86       0.1771
     31  C        103.4150   26.3680  160.8610 C.2    86  TYR86       0.2620
     32  O        103.6950   27.0820  161.8240 O.2    86  TYR86      -0.2715
     33  CB       104.9850   24.4530  160.3970 C.3    86  TYR86       0.0574
     34  CG       105.9430   23.8550  159.4070 C.ar   86  TYR86      -0.0198
     35  CD1      105.4860   23.1570  158.2960 C.ar   86  TYR86      -0.0009
     36  CD2      107.3100   24.0170  159.5560 C.ar   86  TYR86      -0.0009
     37  CE1      106.3720   22.6170  157.3710 C.ar   86  TYR86       0.0417
     38  CE2      108.2020   23.4850  158.6440 C.ar   86  TYR86       0.0417
     39  CZ       107.7330   22.7850  157.5550 C.ar   86  TYR86       0.1957
     40  OH       108.6430   22.2610  156.6590 O.3    86  TYR86      -0.2866
     41  N        102.1660   26.0260  160.5420 N.am   87  SER87      -0.1950
     42  CA       101.0140   26.6580  161.1750 C.3    87  SER87       0.1924
     43  C        100.4490   25.8430  162.3170 C.2    87  SER87       0.2314
     44  O        100.2500   24.6500  162.1670 O.2    87  SER87      -0.2863
     45  CB        99.9250   26.8660  160.1320 C.3    87  SER87       0.2116
     46  OG       100.4160   27.6500  159.0690 O.3    87  SER87      -0.2180
     47  N        100.8590   20.4550  160.8990 N.3   100  ASN100     -0.1240
     48  CA       100.5440   19.5280  159.8300 C.3   100  ASN100      0.1653
     49  C        101.5920   19.6630  158.7500 C.2   100  ASN100      0.2266
     50  O        101.5650   20.6150  157.9810 O.2   100  ASN100     -0.2867
     51  CB        99.1510   19.8010  159.2580 C.3   100  ASN100      0.1155
     52  CG        98.0270   19.3440  160.1810 C.2   100  ASN100      0.2627
     53  OD1       96.8660   19.7370  160.0000 O.2   100  ASN100     -0.2716
     54  ND2       98.3590   18.5150  161.1680 N.am  100  ASN100     -0.0877
     55  N        103.4710   18.4960  155.3050 N.3   102  ARG102     -0.1245
     56  CA       103.4630   17.7400  154.0730 C.3   102  ARG102      0.1563
     57  C        104.8990   17.5200  153.6590 C.2   102  ARG102      0.2260
     58  O        105.7140   18.4400  153.6970 O.2   102  ARG102     -0.2867
     59  CB       102.7230   18.4890  152.9690 C.3   102  ARG102      0.0307
     60  CG       102.7800   17.7740  151.6350 C.3   102  ARG102      0.0489
     61  CD       101.8700   18.3910  150.5680 C.3   102  ARG102      0.2205
     62  NE       101.2980   17.3560  149.6950 N.pl3 102  ARG102     -0.0865
     63  CZ       102.0100   16.5450  148.9050 C.cat 102  ARG102      0.5346
     64  NH1      103.3400   16.6360  148.8610 N.pl3 102  ARG102      0.1354
     65  NH2      101.3910   15.6320  148.1570 N.pl3 102  ARG102      0.1354
     66  N        107.7670   17.3900  151.2220 N.3   104  ALA104     -0.1231
     67  CA       107.9860   18.0780  149.9620 C.3   104  ALA104      0.1694
     68  C        108.9620   17.2870  149.1240 C.2   104  ALA104      0.2593
     69  O        110.1430   17.6310  149.0390 O.2   104  ALA104     -0.2718
     70  CB       108.5050   19.4700  150.2040 C.3   104  ALA104      0.0304
     71  N        108.4570   16.2160  148.5150 N.am  105  THR105     -0.1940
     72  CA       109.2390   15.3710  147.6160 C.3   105  THR105      0.2013
     73  C        109.6580   16.1390  146.3600 C.2   105  THR105      0.2484
     74  O        109.0890   17.1830  146.0530 O.2   105  THR105     -0.2729
     75  CB       108.4050   14.1790  147.2010 C.3   105  THR105      0.1807
     76  OG1      107.2280   14.6600  146.5510 O.3   105  THR105     -0.2208
     77  CG2      107.9930   13.4000  148.4220 C.3   105  THR105      0.0379
     78  N        110.6550   15.6270  145.6240 N.am  106  PRO106     -0.2715
     79  CA       111.0680   16.3160  144.3980 C.3   106  PRO106      0.1521
     80  C        110.0430   16.1320  143.3070 C.2   106  PRO106      0.2440
     81  O        109.1570   15.2900  143.4190 O.2   106  PRO106     -0.2731
     82  CB       112.3460   15.5790  143.9850 C.3   106  PRO106      0.0310
     83  CG       112.7180   14.7230  145.1440 C.3   106  PRO106      0.0237
     84  CD       111.4440   14.4110  145.8540 C.3   106  PRO106      0.0939
     85  N        110.1550   16.9270  142.2490 N.am  107  PRO107     -0.2727
     86  CA       109.3050   16.7730  141.0690 C.3   107  PRO107      0.1402
     87  C        109.3740   15.3500  140.5380 C.2   107  PRO107      0.2269
     88  O        110.4150   14.7190  140.6780 O.2   107  PRO107     -0.2865
     89  CB       109.9480   17.7300  140.0760 C.3   107  PRO107      0.0296
     90  CG       110.5160   18.8150  140.9400 C.3   107  PRO107      0.0237
     91  CD       110.9850   18.1410  142.1930 C.3   107  PRO107      0.0939
     92  N        118.4810   14.4110  140.0210 N.3   118  GLY118     -0.1210
     93  CA       119.4000   15.3080  140.7040 C.3   118  GLY118      0.1956
     94  C        118.7880   16.4770  141.4500 C.2   118  GLY118      0.2612
     95  O        119.3110   17.5870  141.4230 O.2   118  GLY118     -0.2717
     96  N        117.6730   16.2290  142.1210 N.am  119  ILE119     -0.1965
     97  CA       117.0140   17.2570  142.9080 C.3   119  ILE119      0.1727
     98  C        116.7140   16.7450  144.3110 C.2   119  ILE119      0.2616
     99  O        116.0280   15.7340  144.4750 O.2   119  ILE119     -0.2715
    100  CB       115.7040   17.7130  142.2430 C.3   119  ILE119      0.0290
    101  CG1      116.0090   18.4020  140.9200 C.3   119  ILE119      0.0022
    102  CG2      114.9360   18.6550  143.1460 C.3   119  ILE119      0.0023
    103  CD1      114.7880   18.7220  140.1270 C.3   119  ILE119      0.0001
    104  N        117.2480   17.4410  145.3140 N.am  120  LYS120     -0.1964
    105  CA       116.9600   17.1540  146.7190 C.3   120  LYS120      0.1713
    106  C        115.4710   17.2620  147.0200 C.2   120  LYS120      0.2458
    107  O        114.7870   18.1410  146.5010 O.2   120  LYS120     -0.2730
    108  CB       117.6520   18.1670  147.6390 C.3   120  LYS120      0.0311
    109  CG       119.1530   18.0430  147.8770 C.3   120  LYS120      0.0038
    110  CD       119.6260   19.2950  148.6470 C.3   120  LYS120      0.0206
    111  CE       121.0310   19.1490  149.1820 C.3   120  LYS120      0.1093
    112  NZ       121.1580   17.8400  149.8650 N.3   120  LYS120     -0.1314
    113  N        114.9740   16.3850  147.8940 N.am  121  PRO121     -0.2716
    114  CA       113.6600   16.6160  148.4850 C.3   121  PRO121      0.1536
    115  C        113.6970   17.8840  149.3440 C.2   121  PRO121      0.2599
    116  O        114.7690   18.4200  149.6090 O.2   121  PRO121     -0.2715
    117  CB       113.4640   15.3870  149.3800 C.3   121  PRO121      0.0310
    118  CG       114.4380   14.3840  148.8810 C.3   121  PRO121      0.0237
    119  CD       115.6040   15.1590  148.4080 C.3   121  PRO121      0.0939
    120  N        112.5330   18.3600  149.7650 N.am  122  GLY122     -0.1941
    121  CA       112.4720   19.4850  150.6660 C.3   122  GLY122      0.2014
    122  C        113.3750   19.2630  151.8560 C.2   122  GLY122      0.2639
    123  O        113.3850   18.1790  152.4250 O.2   122  GLY122     -0.2714
    124  N        114.1290   20.2920  152.2310 N.am  123  ILE123     -0.1963
    125  CA       115.0620   20.2060  153.3440 C.3   123  ILE123      0.1727
    126  C        114.3520   20.1730  154.6960 C.2   123  ILE123      0.2617
    127  O        114.6890   19.3660  155.5550 O.2   123  ILE123     -0.2715
    128  CB       116.0140   21.4050  153.3570 C.3   123  ILE123      0.0290
    129  CG1      116.9170   21.3930  152.1270 C.3   123  ILE123      0.0022
    130  CG2      116.8350   21.4140  154.6350 C.3   123  ILE123      0.0023
    131  CD1      117.9660   20.3130  152.1420 C.3   123  ILE123      0.0001
    132  N        113.3840   21.0610  154.8990 N.am  124  SER124     -0.1936
    133  CA       112.7050   21.1180  156.1840 C.3   124  SER124      0.2055
    134  C        111.8420   19.8830  156.3890 C.2   124  SER124      0.2643
    135  O        112.0350   19.1250  157.3380 O.2   124  SER124     -0.2714
    136  CB       111.8560   22.3850  156.3080 C.3   124  SER124      0.2130
    137  OG       111.4500   22.5960  157.6530 O.3   124  SER124     -0.2179
    138  N        110.8940   19.6830  155.4850 N.am  125  SER125     -0.1949
    139  CA       109.9640   18.5700  155.5930 C.3   125  SER125      0.1924
    140  C        110.6660   17.2220  155.7640 C.2   125  SER125      0.2314
    141  O        110.2130   16.3870  156.5570 O.2   125  SER125     -0.2863
    142  CB       109.0150   18.5360  154.3890 C.3   125  SER125      0.2116
    143  OG       109.7260   18.5450  153.1660 O.3   125  SER125     -0.2180
    144  N         97.8360   20.5170  153.4400 N.3   159  ALA159     -0.1245
    145  CA        98.1740   20.9000  154.8080 C.3   159  ALA159      0.1562
    146  C         97.5790   22.2540  155.1760 C.2   159  ALA159      0.2260
    147  O         97.8980   22.8190  156.2180 O.2   159  ALA159     -0.2867
    148  CB        99.6830   20.9090  154.9990 C.3   159  ALA159      0.0290
    149  N         95.6170   23.2000  158.6190 N.3   161  ALA161     -0.1245
    150  CA        96.1410   23.6680  159.8920 C.3   161  ALA161      0.1562
    151  C         95.5540   24.9900  160.3600 C.2   161  ALA161      0.2260
    152  O         94.8460   25.0390  161.3620 O.2   161  ALA161     -0.2867
    153  CB        97.6510   23.7100  159.8660 C.3   161  ALA161      0.0290
    154  N         95.9930   32.6400  153.2830 N.3   275  ASP275     -0.1225
    155  CA        97.2930   32.2470  153.8600 C.3   275  ASP275      0.1805
    156  C         98.1930   31.5410  152.8390 C.2   275  ASP275      0.2598
    157  O         97.9900   30.3610  152.5090 O.2   275  ASP275     -0.2718
    158  CB        97.1450   31.3940  155.1360 C.3   275  ASP275      0.1424
    159  CG        98.3650   31.5140  156.0790 C.2   275  ASP275      0.3668
    160  OD1       99.0240   32.5760  156.0710 O.co2 275  ASP275     -0.2456
    161  OD2       98.6610   30.5600  156.8390 O.co2 275  ASP275     -0.2456
    162  N         99.1930   32.2810  152.3540 N.am  276  ASP276     -0.1960
    163  CA       100.1000   31.7930  151.3110 C.3   276  ASP276      0.1840
    164  C        101.2500   30.9420  151.8760 C.2   276  ASP276      0.2622
    165  O        102.1340   31.4350  152.5670 O.2   276  ASP276     -0.2715
    166  CB       100.6380   32.9780  150.4950 C.3   276  ASP276      0.1450
    167  CG       101.1600   32.5670  149.1300 C.2   276  ASP276      0.3671
    168  OD1      101.4530   31.3640  148.9510 O.co2 276  ASP276     -0.2456
    169  OD2      101.2740   33.4490  148.2430 O.co2 276  ASP276     -0.2456
    170  N        101.2340   29.6520  151.5890 N.am  277  PHE277     -0.1960
    171  CA       102.3130   28.7910  152.0450 C.3   277  PHE277      0.1771
    172  C        103.5620   28.8940  151.1750 C.2   277  PHE277      0.2620
    173  O        104.6400   28.4640  151.5780 O.2   277  PHE277     -0.2715
    174  CB       101.8380   27.3510  152.0860 C.3   277  PHE277      0.0574
    175  CG       101.1520   27.0000  153.3490 C.ar  277  PHE277     -0.0200
    176  CD1      100.8610   25.6860  153.6500 C.ar  277  PHE277     -0.0042
    177  CD2      100.8200   27.9900  154.2580 C.ar  277  PHE277     -0.0042
    178  CE1      100.2310   25.3690  154.8230 C.ar  277  PHE277     -0.0003
    179  CE2      100.1870   27.6790  155.4340 C.ar  277  PHE277     -0.0003
    180  CZ        99.8940   26.3700  155.7220 C.ar  277  PHE277     -0.0000
    181  N        103.4190   29.4670  149.9840 N.am  278  GLY278     -0.1954
    182  CA       104.5050   29.4770  149.0260 C.3   278  GLY278      0.1869
    183  C        104.5750   28.1440  148.2970 C.2   278  GLY278      0.2309
    184  O        105.6500   27.5630  148.1160 O.2   278  GLY278     -0.2863
@<TRIPOS>BOND
     1    92    93    1
     2    89    90    1
     3    89    86    1
     4   103   101    1
     5    87    88    2
     6    87    86    1
     7    93    94    1
     8   101   100    1
     9    90    91    1
    10    86    85    1
    11    95    94    2
    12    94    96   am
    13    96    97    1
    14    91    85    1
    15   100    97    1
    16   100   102    1
    17    85    80   am
    18    97    98    1
    19    80    81    2
    20    80    79    1
    21    82    79    1
    22    82    83    1
    23    98    99    2
    24    98   104   am
    25    79    78    1
    26    83    84    1
    27   104   105    1
    28    78    84    1
    29    78    73   am
    30    74    73    2
    31    73    72    1
    32   107   106    2
    33    76    75    1
    34   105   106    1
    35   105   108    1
    36   106   113   am
    37    75    72    1
    38    75    77    1
    39    72    71    1
    40   108   109    1
    41   109   110    1
    42   113   119    1
    43   113   114    1
    44   184   183    2
    45    65    63    1
    46   169   167   ar
    47   183   182    1
    48   119   118    1
    49   114   115    1
    50   114   117    1
    51    71    68   am
    52   110   111    1
    53    64    63    1
    54   118   117    1
    55    63    62    2
    56   168   167   ar
    57   182   181    1
    58    69    68    2
    59    68    67    1
    60   167   166    1
    61   111   112    1
    62   115   116    2
    63   115   120   am
    64    62    61    1
    65   120   121    1
    66    67    70    1
    67    67    66    1
    68   181   172   am
    69   166   163    1
    70    61    60    1
    71   121   122    1
    72   172   173    2
    73   172   171    1
    74   163   164    1
    75   163   162    1
    76   170   164   am
    77   170   171    1
    78    60    59    1
    79   122   124   am
    80   122   123    2
    81   164   165    2
    82   171   174    1
    83   174   175    1
    84   129   131    1
    85   129   128    1
    86   124   125    1
    87   162   156   am
    88   157   156    2
    89   156   155    1
    90    59    56    1
    91   143   142    1
    92   154   155    1
    93   125   128    1
    94   125   126    1
    95   175   176   ar
    96   175   177   ar
    97   128   130    1
    98   144   145    1
    99   176   178   ar
   100    57    58    2
   101    57    56    1
   102   155   158    1
   103    23    21    1
   104    56    55    1
   105   177   179   ar
   106   142   139    1
   107    20    21    2
   108    20    19    1
   109    21    22    1
   110   126   132   am
   111   126   127    2
   112   145   148    1
   113   145   146    1
   114   178   180   ar
   115   132   133    1
   116    19    18    1
   117   158   159    1
   118   146   147    2
   119   179   180   ar
   120   138   139    1
   121   138   134   am
   122   139   140    1
   123   140   141    2
   124   160   159   ar
   125   159   161   ar
   126   133   136    1
   127   133   134    1
   128    18    17    1
   129   136   137    1
   130   134   135    2
   131    40    39    1
   132    37    39   ar
   133    37    35   ar
   134    17    14    1
   135    39    38   ar
   136    27    26    2
   137    50    49    2
   138    14    15    1
   139    14    13    1
   140    35    34   ar
   141    24    25    1
   142    24    15   am
   143    28    25    1
   144   149   150    1
   145    38    36   ar
   146    49    48    1
   147    26    25    1
   148    26    29   am
   149    15    16    2
   150    46    45    1
   151    12    11    1
   152    51    48    1
   153    51    52    1
   154    34    36   ar
   155    34    33    1
   156     9    11   ar
   157     9     7   ar
   158    11    10   ar
   159    48    47    1
   160   153   150    1
   161   150   151    1
   162    29    30    1
   163    30    33    1
   164    30    31    1
   165     7     6   ar
   166    53    52    2
   167    45    42    1
   168    52    54   am
   169    10     8   ar
   170   151   152    2
   171    41    31   am
   172    41    42    1
   173     6     8   ar
   174     6     5    1
   175    31    32    2
   176     5     2    1
   177    42    43    1
   178    44    43    2
   179     2     1    1
   180     2     3    1
   181     3     4    2
