@<TRIPOS>MOLECULE
tmp/2r6nA00.pdb
 148 143 0 0 0
SMALL
GASTEIGER

@<TRIPOS>ATOM
      1  N         41.2310   16.9860   11.7810 N.3    20  GLN20      -0.1245
      2  CA        40.0030   16.2490   12.0680 C.3    20  GLN20       0.1566
      3  C         40.0860   15.2940   13.2620 C.2    20  GLN20       0.2260
      4  O         39.0650   14.7980   13.7320 O.2    20  GLN20      -0.2867
      5  CB        39.5720   15.4640   10.8270 C.3    20  GLN20       0.0367
      6  CG        40.4950   14.3070   10.4690 C.3    20  GLN20       0.0905
      7  CD        40.0780   13.6080    9.1840 C.2    20  GLN20       0.2608
      8  OE1       40.2070   14.1630    8.0930 O.2    20  GLN20      -0.2717
      9  NE2       39.5660   12.3890    9.3120 N.am   20  GLN20      -0.0878
     10  N         36.1730   10.2200   11.6410 N.3    24  GLY24      -0.1225
     11  CA        36.2180   10.0770   10.1930 C.3    24  GLY24       0.1811
     12  C         35.3510   11.1390    9.5380 C.2    24  GLY24       0.2280
     13  O         34.3970   10.8350    8.8170 O.2    24  GLY24      -0.2866
     14  N         36.4710   13.5360    7.3760 N.3    26  CYS26      -0.1221
     15  CA        37.1150   14.1290    6.2060 C.3    26  CYS26       0.1808
     16  C         36.0660   14.7030    5.2590 C.2    26  CYS26       0.2601
     17  O         36.2670   15.7690    4.6740 O.2    26  CYS26      -0.2717
     18  CB        37.9550   13.0880    5.4650 C.3    26  CYS26       0.0970
     19  SG        37.0340   11.6100    4.9400 S.3    26  CYS26      -0.0800
     20  N         34.9440   14.0010    5.1220 N.am   27  TRP27      -0.1976
     21  CA        33.8710   14.4490    4.2410 C.3    27  TRP27       0.1640
     22  C         33.2780   15.7880    4.6820 C.2    27  TRP27       0.2290
     23  O         32.8570   16.5950    3.8490 O.2    27  TRP27      -0.2864
     24  CB        32.7590   13.3970    4.1670 C.3    27  TRP27       0.0576
     25  CG        32.1110   13.0870    5.4900 C.ar   27  TRP27       0.0006
     26  CD1       32.4980   12.1360    6.3970 C.ar   27  TRP27       0.0946
     27  CD2       30.9750   13.7480    6.0630 C.ar   27  TRP27       0.0152
     28  NE1       31.6710   12.1650    7.4980 N.ar   27  TRP27      -0.2442
     29  CE2       30.7290   13.1470    7.3190 C.ar   27  TRP27       0.0810
     30  CE3       30.1420   14.7950    5.6370 C.ar   27  TRP27       0.0012
     31  CZ2       29.6810   13.5570    8.1560 C.ar   27  TRP27       0.0191
     32  CZ3       29.0980   15.2040    6.4710 C.ar   27  TRP27       0.0001
     33  CH2       28.8800   14.5840    7.7170 C.ar   27  TRP27       0.0015
     34  N         21.7690   11.4490    6.7320 N.3    60  GLU60      -0.1231
     35  CA        22.0560   10.5360    5.6290 C.3    60  GLU60       0.1699
     36  C         23.4950   10.0160    5.6660 C.2    60  GLU60       0.2592
     37  O         23.8270    9.0480    4.9800 O.2    60  GLU60      -0.2718
     38  CB        21.8050   11.2140    4.2790 C.3    60  GLU60       0.0402
     39  CG        20.3580   11.6010    4.0080 C.3    60  GLU60       0.1161
     40  CD        19.9360   12.8720    4.7270 C.2    60  GLU60       0.3649
     41  OE1       20.7960   13.5260    5.3620 O.co2  60  GLU60      -0.2457
     42  OE2       18.7370   13.2220    4.6460 O.co2  60  GLU60      -0.2457
     43  N         24.3550   10.6710    6.4410 N.am   61  ASN61      -0.1960
     44  CA        25.7420   10.2300    6.5620 C.3    61  ASN61       0.1819
     45  C         25.9330    9.5110    7.8950 C.2    61  ASN61       0.2621
     46  O         25.0070    9.4560    8.7080 O.2    61  ASN61      -0.2715
     47  CB        26.7090   11.4190    6.4350 C.3    61  ASN61       0.1195
     48  CG        26.8910   11.8660    4.9920 C.2    61  ASN61       0.2630
     49  OD1       26.6280   11.1030    4.0610 O.2    61  ASN61      -0.2716
     50  ND2       27.3570   13.0950    4.8000 N.am   61  ASN61      -0.0877
     51  N         27.1290    8.9760    8.1230 N.am   62  ASP62      -0.1971
     52  CA        27.4000    8.2240    9.3430 C.3    62  ASP62       0.1709
     53  C         28.3170    8.9250   10.3500 C.2    62  ASP62       0.2293
     54  O         29.1140    8.2740   11.0240 O.2    62  ASP62      -0.2864
     55  CB        27.9740    6.8510    8.9590 C.3    62  ASP62       0.1436
     56  CG        27.9380    5.8520   10.1030 C.2    62  ASP62       0.3671
     57  OD1       26.8850    5.7280   10.7610 O.co2  62  ASP62      -0.2456
     58  OD2       28.9640    5.1770   10.3310 O.co2  62  ASP62      -0.2456
     59  N         31.0910   10.2620   12.4170 N.3    64  CYS64      -0.1221
     60  CA        32.5170    9.9560   12.4380 C.3    64  CYS64       0.1808
     61  C         32.8260    8.6340   11.7460 C.2    64  CYS64       0.2602
     62  O         33.9800    8.2130   11.6890 O.2    64  CYS64      -0.2717
     63  CB        33.0450    9.9240   13.8800 C.3    64  CYS64       0.0970
     64  SG        33.1070   11.5620   14.6760 S.3    64  CYS64      -0.0800
     65  N         31.7900    7.9860   11.2260 N.am   65  GLY65      -0.1942
     66  CA        31.9730    6.7260   10.5330 C.3    65  GLY65       0.2014
     67  C         32.1330    6.9200    9.0340 C.2    65  GLY65       0.2639
     68  O         32.4680    5.9770    8.3140 O.2    65  GLY65      -0.2714
     69  N         31.8980    8.1450    8.5640 N.am   66  GLY66      -0.1939
     70  CA        32.0170    8.4420    7.1450 C.3    66  GLY66       0.2014
     71  C         30.7620    9.0760    6.5670 C.2    66  GLY66       0.2639
     72  O         29.7580    9.2200    7.2660 O.2    66  GLY66      -0.2714
     73  N         30.8180    9.4520    5.2910 N.am   67  GLY67      -0.1939
     74  CA        29.6720   10.0670    4.6400 C.3    67  GLY67       0.2014
     75  C         30.0610   10.6920    3.3120 C.2    67  GLY67       0.2639
     76  O         31.2460   10.7690    2.9950 O.2    67  GLY67      -0.2714
     77  N         29.0770   11.1340    2.5300 N.am   68  TYR68      -0.1959
     78  CA        29.3580   11.7590    1.2380 C.3    68  TYR68       0.1771
     79  C         29.2220   13.2780    1.3010 C.2    68  TYR68       0.2619
     80  O         28.4170   13.8080    2.0670 O.2    68  TYR68      -0.2715
     81  CB        28.4080   11.2360    0.1520 C.3    68  TYR68       0.0574
     82  CG        28.6400    9.8010   -0.2690 C.ar   68  TYR68      -0.0198
     83  CD1       29.9260    9.3170   -0.4910 C.ar   68  TYR68      -0.0009
     84  CD2       27.5660    8.9350   -0.4770 C.ar   68  TYR68      -0.0009
     85  CE1       30.1420    8.0040   -0.9070 C.ar   68  TYR68       0.0417
     86  CE2       27.7710    7.6180   -0.8950 C.ar   68  TYR68       0.0417
     87  CZ        29.0610    7.1620   -1.1070 C.ar   68  TYR68       0.1957
     88  OH        29.2710    5.8640   -1.5170 O.3    68  TYR68      -0.2866
     89  N         30.0050   13.9720    0.4790 N.am   69  MET69      -0.1977
     90  CA        29.9550   15.4250    0.4320 C.3    69  MET69       0.1605
     91  C         28.6400   15.8900   -0.1960 C.2    69  MET69       0.2287
     92  O         28.0800   16.9100    0.2070 O.2    69  MET69      -0.2864
     93  CB        31.1440   15.9810   -0.3650 C.3    69  MET69       0.0413
     94  CG        32.5020   15.7810    0.3030 C.3    69  MET69       0.0598
     95  SD        33.1550   14.0920    0.1790 S.3    69  MET69      -0.1393
     96  CE        33.9140   14.1460   -1.4570 C.3    69  MET69       0.0692
     97  N         25.7820   14.5780    0.1250 N.3    71  ASN71      -0.1240
     98  CA        24.7500   14.5370    1.1570 C.3    71  ASN71       0.1653
     99  C         24.8770   15.7530    2.0710 C.2    71  ASN71       0.2266
    100  O         23.8800   16.2680    2.5770 O.2    71  ASN71      -0.2867
    101  CB        24.8570   13.2580    1.9960 C.3    71  ASN71       0.1155
    102  CG        24.3310   12.0370    1.2700 C.2    71  ASN71       0.2627
    103  OD1       23.5650   12.1540    0.3160 O.2    71  ASN71      -0.2716
    104  ND2       24.7210   10.8570    1.7340 N.am   71  ASN71      -0.0877
    105  N         37.4420   12.9590   -3.7150 N.3   135  ALA135     -0.1245
    106  CA        37.7580   11.7740   -2.9200 C.3   135  ALA135      0.1562
    107  C         38.9500   11.0920   -3.5860 C.2   135  ALA135      0.2260
    108  O         39.1080   11.1650   -4.8050 O.2   135  ALA135     -0.2867
    109  CB        36.5670   10.8270   -2.8770 C.3   135  ALA135      0.0290
    110  N         38.3820    4.4780   -3.1450 N.3   161  LEU161     -0.1231
    111  CA        38.1920    5.7990   -2.5430 C.3   161  LEU161      0.1693
    112  C         37.9850    5.6130   -1.0480 C.2   161  LEU161      0.2592
    113  O         37.0420    4.9430   -0.6300 O.2   161  LEU161     -0.2718
    114  CB        36.9750    6.4890   -3.1610 C.3   161  LEU161      0.0284
    115  CG        37.0300    6.6620   -4.6820 C.3   161  LEU161      0.0019
    116  CD1       35.7550    7.3430   -5.1620 C.3   161  LEU161      0.0001
    117  CD2       38.2560    7.4830   -5.0710 C.3   161  LEU161      0.0001
    118  N         38.8510    6.2200   -0.2450 N.am  162  ASN162     -0.1960
    119  CA        38.7720    6.0510    1.2010 C.3   162  ASN162      0.1819
    120  C         39.0460    7.3070    2.0130 C.2   162  ASN162      0.2621
    121  O         39.1880    7.2360    3.2380 O.2   162  ASN162     -0.2715
    122  CB        39.7570    4.9620    1.6230 C.3   162  ASN162      0.1195
    123  CG        41.1410    5.1780    1.0330 C.2   162  ASN162      0.2630
    124  OD1       41.7530    6.2320    1.2230 O.2   162  ASN162     -0.2716
    125  ND2       41.6420    4.1800    0.3110 N.am  162  ASN162     -0.0877
    126  N         39.1120    8.4540    1.3460 N.am  163  HIS163     -0.1959
    127  CA        39.3870    9.7100    2.0380 C.3   163  HIS163      0.1787
    128  C         38.8750   10.8690    1.1820 C.2   163  HIS163      0.2620
    129  O         38.7890   10.7500   -0.0420 O.2   163  HIS163     -0.2715
    130  CB        40.8990    9.8290    2.2750 C.3   163  HIS163      0.0785
    131  CG        41.3020   11.0190    3.0880 C.ar  163  HIS163      0.0821
    132  ND1       40.7200   11.3290    4.2990 N.ar  163  HIS163     -0.2267
    133  CD2       42.2550   11.9580    2.8780 C.ar  163  HIS163      0.1154
    134  CE1       41.2970   12.4080    4.7980 C.ar  163  HIS163      0.1986
    135  NE2       42.2320   12.8090    3.9560 N.ar  163  HIS163     -0.2212
    136  N         38.5120   11.9740    1.8250 N.am  164  ALA164     -0.1977
    137  CA        38.0040   13.1330    1.1010 C.3   164  ALA164      0.1597
    138  C         38.8510   14.3510    1.4190 C.2   164  ALA164      0.2287
    139  O         39.1860   14.6030    2.5760 O.2   164  ALA164     -0.2864
    140  CB        36.5470   13.3990    1.4720 C.3   164  ALA164      0.0319
    141  N         34.9080   11.1250   -7.7060 N.3   210  LEU210     -0.1245
    142  CA        33.7990   11.5260   -6.8420 C.3   210  LEU210      0.1561
    143  C         33.9790   12.9890   -6.4520 C.2   210  LEU210      0.2260
    144  O         34.1320   13.3180   -5.2730 O.2   210  LEU210     -0.2867
    145  CB        33.7670   10.6510   -5.5850 C.3   210  LEU210      0.0270
    146  CG        32.4660   10.6400   -4.7750 C.3   210  LEU210      0.0019
    147  CD1       31.3900    9.9130   -5.5570 C.3   210  LEU210      0.0001
    148  CD2       32.6930    9.9510   -3.4380 C.3   210  LEU210      0.0001
@<TRIPOS>BOND
     1   141   142    1
     2   142   143    1
     3   142   145    1
     4   143   144    2
     5   145   146    1
     6   147   146    1
     7   116   115    1
     8   117   115    1
     9   108   107    2
    10   146   148    1
    11   115   114    1
    12   105   106    1
    13   107   106    1
    14   114   111    1
    15   110   111    1
    16   106   109    1
    17   111   112    1
    18    88    87    1
    19    96    95    1
    20    87    85   ar
    21    87    86   ar
    22   112   113    2
    23   112   118   am
    24    85    83   ar
    25    86    84   ar
    26    83    82   ar
    27    84    82   ar
    28    93    94    1
    29    93    90    1
    30    82    81    1
    31   118   119    1
    32    91    92    2
    33    91    90    1
    34   129   128    2
    35    97    98    1
    36    81    78    1
    37    95    94    1
    38   125   123   am
    39   103   102    2
    40    90    89    1
    41    89    79   am
    42   123   124    2
    43   123   122    1
    44   137   138    1
    45   137   140    1
    46   137   136    1
    47    98   101    1
    48    98    99    1
    49   128   136   am
    50   128   127    1
    51   119   122    1
    52   119   120    1
    53    78    79    1
    54    78    77    1
    55   102   104   am
    56   102   101    1
    57    79    80    2
    58   126   120   am
    59   126   127    1
    60   138   139    2
    61   120   121    2
    62   127   130    1
    63    99   100    2
    64   130   131    1
    65    77    75   am
    66   133   131   ar
    67   133   135   ar
    68    76    75    2
    69   131   132   ar
    70    75    74    1
    71    23    22    2
    72   135   134   ar
    73    39    38    1
    74    39    40    1
    75    49    48    2
    76    24    21    1
    77    24    25    1
    78    21    22    1
    79    21    20    1
    80    38    35    1
    81   132   134   ar
    82    74    73    1
    83    42    40   ar
    84    17    16    2
    85    40    41   ar
    86    50    48   am
    87    19    18    1
    88    37    36    2
    89    48    47    1
    90    20    16   am
    91    16    15    1
    92    73    71   am
    93    18    15    1
    94    25    27   ar
    95    25    26   ar
    96    35    36    1
    97    35    34    1
    98    30    27   ar
    99    30    32   ar
   100    36    43   am
   101    27    29   ar
   102    15    14    1
   103    26    28   ar
   104    47    44    1
   105    43    44    1
   106    32    33   ar
   107    44    45    1
   108    71    70    1
   109    71    72    2
   110    70    69    1
   111    29    28   ar
   112    29    31   ar
   113    33    31   ar
   114    45    51   am
   115    45    46    2
   116     8     7    2
   117    51    52    1
   118    68    67    2
   119    69    67   am
   120    13    12    2
   121    55    52    1
   122    55    56    1
   123    67    66    1
   124     7     9   am
   125     7     6    1
   126    52    53    1
   127    12    11    1
   128    56    58   ar
   129    56    57   ar
   130    11    10    1
   131    53    54    2
   132     6     5    1
   133    66    65    1
   134     5     2    1
   135    65    61   am
   136    62    61    2
   137    61    60    1
   138     1     2    1
   139     2     3    1
   140    59    60    1
   141    60    63    1
   142     3     4    2
   143    63    64    1
