@<TRIPOS>MOLECULE
tmp/2r6rA00.pdb
 167 153 0 0 0
SMALL
GASTEIGER

@<TRIPOS>ATOM
      1  N          0.7050   -0.7930    7.5980 N.3     8  VAL8       -0.1231
      2  CA        -0.3130   -0.9340    6.5580 C.3     8  VAL8        0.1692
      3  C         -1.6980   -1.1620    7.1930 C.2     8  VAL8        0.2593
      4  O         -1.9000   -2.1680    7.8790 O.2     8  VAL8       -0.2718
      5  CB         0.0220   -2.1050    5.6140 C.3     8  VAL8        0.0266
      6  CG1       -0.9960   -2.1660    4.4520 C.3     8  VAL8        0.0020
      7  CG2        1.4440   -1.9680    5.0880 C.3     8  VAL8        0.0020
      8  N         -2.6470   -0.2410    6.9430 N.am    9  GLY9       -0.1942
      9  CA        -3.9640   -0.3090    7.5850 C.3     9  GLY9        0.2014
     10  C         -3.9410    0.2900    8.9840 C.2     9  GLY9        0.2639
     11  O         -2.9120    0.8200    9.4240 O.2     9  GLY9       -0.2714
     12  N         -5.0680    0.1980    9.6840 N.am   10  GLY10      -0.1939
     13  CA        -5.2210    0.9060   10.9570 C.3    10  GLY10       0.2014
     14  C         -4.3200    0.3270   12.0310 C.2    10  GLY10       0.2639
     15  O         -3.6220    1.0580   12.7310 O.2    10  GLY10      -0.2714
     16  N         -4.3460   -1.0000   12.1650 N.am   11  GLY11      -0.1939
     17  CA        -3.5520   -1.6610   13.1930 C.3    11  GLY11       0.2014
     18  C         -2.0670   -1.4410   12.9550 C.2    11  GLY11       0.2639
     19  O         -1.3500   -1.0560   13.8700 O.2    11  GLY11      -0.2714
     20  N         -1.6250   -1.6670   11.7160 N.am   12  GLY12      -0.1954
     21  CA        -0.1980   -1.4970   11.3420 C.3    12  GLY12       0.1869
     22  C          0.2550   -0.0550   11.5750 C.2    12  GLY12       0.2309
     23  O          1.3500    0.1950   12.1050 O.2    12  GLY12      -0.2863
     24  N         -1.1260    2.0770   13.6530 N.3    14  ASN14      -0.1225
     25  CA        -1.0680    2.2990   15.0920 C.3    14  ASN14       0.1785
     26  C          0.2230    1.7690   15.7110 C.2    14  ASN14       0.2597
     27  O          0.8110    2.4280   16.5790 O.2    14  ASN14      -0.2718
     28  CB        -2.3280    1.7950   15.7920 C.3    14  ASN14       0.1169
     29  CG        -3.5130    2.7210   15.5620 C.2    14  ASN14       0.2627
     30  OD1       -3.3560    3.8410   15.0410 O.2    14  ASN14      -0.2716
     31  ND2       -4.7030    2.2730   15.9620 N.am   14  ASN14      -0.0877
     32  N          0.7030    0.6200   15.2280 N.am   15  ALA15      -0.1979
     33  CA         1.9430    0.0350   15.7530 C.3    15  ALA15       0.1597
     34  C          3.1320    0.9250   15.4000 C.2    15  ALA15       0.2287
     35  O          4.0200    1.1810   16.2370 O.2    15  ALA15      -0.2864
     36  CB         2.1440   -1.4040   15.2070 C.3    15  ALA15       0.0319
     37  N         -2.5810    3.7900    4.2380 N.3    33  ASN33      -0.1240
     38  CA        -3.9560    3.3730    4.5110 C.3    33  ASN33       0.1653
     39  C         -4.8740    3.7810    3.3730 C.2    33  ASN33       0.2266
     40  O         -4.5640    4.7310    2.6260 O.2    33  ASN33      -0.2867
     41  CB        -4.4320    4.0260    5.8250 C.3    33  ASN33       0.1155
     42  CG        -5.4790    3.2080    6.5860 C.2    33  ASN33       0.2627
     43  OD1       -5.6180    3.3600    7.8310 O.2    33  ASN33      -0.2716
     44  ND2       -6.2170    2.3660    5.8900 N.am   33  ASN33      -0.0877
     45  N         -7.9080    4.5180    4.4550 N.3    35  ASP35      -0.1239
     46  CA        -8.7600    5.2890    5.3480 C.3    35  ASP35       0.1674
     47  C         -8.0230    6.6020    5.6400 C.2    35  ASP35       0.2266
     48  O         -7.1030    6.6600    6.4720 O.2    35  ASP35      -0.2867
     49  CB        -9.0050    4.4730    6.6240 C.3    35  ASP35       0.1410
     50  CG        -9.8680    5.1860    7.6430 C.2    35  ASP35       0.3668
     51  OD1      -10.1720    6.3990    7.4700 O.co2  35  ASP35      -0.2456
     52  OD2      -10.2180    4.5020    8.6380 O.co2  35  ASP35      -0.2456
     53  N        -11.3160    0.2740    3.3080 N.3    60  ALA60      -0.1245
     54  CA       -11.5640   -0.9440    2.5210 C.3    60  ALA60       0.1562
     55  C        -12.7460   -1.7800    2.9940 C.2    60  ALA60       0.2260
     56  O        -12.9630   -2.8820    2.4790 O.2    60  ALA60      -0.2867
     57  CB       -10.3260   -1.8160    2.5160 C.3    60  ALA60       0.0290
     58  N        -13.1390   -3.6430    5.4350 N.3    62  ALA62      -0.1245
     59  CA       -12.6410   -4.9310    5.9290 C.3    62  ALA62       0.1562
     60  C        -12.5070   -6.0070    4.8410 C.2    62  ALA62       0.2260
     61  O        -12.4010   -7.2010    5.1490 O.2    62  ALA62      -0.2867
     62  CB       -13.4890   -5.4380    7.1110 C.3    62  ALA62       0.0290
     63  N         -1.8580   -5.5270   10.8810 N.3    93  GLY93      -0.1210
     64  CA        -2.7810   -6.3160   11.6850 C.3    93  GLY93       0.1956
     65  C         -3.6350   -7.1300   10.7170 C.2    93  GLY93       0.2611
     66  O         -4.4970   -6.5740   10.0260 O.2    93  GLY93      -0.2717
     67  N         -3.3690   -8.4290   10.6210 N.am   94  LEU94      -0.1979
     68  CA        -4.1110   -9.2590    9.6920 C.3    94  LEU94       0.1596
     69  C         -5.5170   -9.5110   10.1960 C.2    94  LEU94       0.2287
     70  O         -5.7630   -9.5890   11.4090 O.2    94  LEU94      -0.2864
     71  CB        -3.4030  -10.5840    9.3840 C.3    94  LEU94       0.0297
     72  CG        -1.9730  -10.4250    8.8480 C.3    94  LEU94       0.0022
     73  CD1       -1.3910  -11.8070    8.5060 C.3    94  LEU94       0.0001
     74  CD2       -1.9570   -9.5060    7.6530 C.3    94  LEU94       0.0001
     75  N         -8.2410   -7.5390    8.7790 N.3    96  GLY96      -0.1210
     76  CA        -9.0220   -6.4240    8.2510 C.3    96  GLY96       0.1956
     77  C         -8.9430   -6.4390    6.7320 C.2    96  GLY96       0.2612
     78  O         -8.6430   -7.4690    6.1340 O.2    96  GLY96      -0.2717
     79  N         -9.1650   -5.2830    6.1150 N.am   97  GLY97      -0.1942
     80  CA        -9.1070   -5.2110    4.6620 C.3    97  GLY97       0.2014
     81  C         -7.8070   -4.6990    4.0980 C.2    97  GLY97       0.2640
     82  O         -7.2420   -5.2850    3.1770 O.2    97  GLY97      -0.2714
     83  N         -7.3610   -3.5570    4.6240 N.am   98  THR98      -0.1936
     84  CA        -6.2190   -2.8660    4.0730 C.3    98  THR98       0.2028
     85  C         -4.9260   -3.6070    4.3790 C.2    98  THR98       0.2642
     86  O         -4.1170   -3.8560    3.4730 O.2    98  THR98      -0.2714
     87  CB        -6.1940   -1.4140    4.6050 C.3    98  THR98       0.1808
     88  OG1       -7.4080   -0.7620    4.2210 O.3    98  THR98      -0.2208
     89  CG2       -4.9970   -0.6640    4.0590 C.3    98  THR98       0.0379
     90  N         -4.6990   -3.9310    5.6530 N.am   99  GLY99      -0.1954
     91  CA        -3.4960   -4.6870    6.0340 C.3    99  GLY99       0.1869
     92  C         -3.4680   -6.0320    5.3060 C.2    99  GLY99       0.2309
     93  O         -2.5180   -6.3480    4.5680 O.2    99  GLY99      -0.2863
     94  N          0.2580   -9.4400   12.8270 N.3   122  THR122     -0.1218
     95  CA        -0.4880   -9.9930   13.9370 C.3   122  THR122      0.1862
     96  C         -1.6980  -10.7900   13.4600 C.2   122  THR122      0.2287
     97  O         -2.2810  -10.4770   12.4200 O.2   122  THR122     -0.2866
     98  CB        -0.9710   -8.9380   14.9700 C.3   122  THR122      0.1770
     99  OG1       -1.9170   -8.0370   14.3690 O.3   122  THR122     -0.2211
    100  CG2        0.2080   -8.1760   15.5930 C.3   122  THR122      0.0375
    101  N         -5.5600  -11.9030   14.9800 N.3   124  PRO124     -0.2116
    102  CA        -6.4690  -11.2620   15.9290 C.3   124  PRO124      0.1372
    103  C         -6.7070  -12.0020   17.2510 C.2   124  PRO124      0.2244
    104  O         -6.5030  -13.2310   17.3430 O.2   124  PRO124     -0.2868
    105  CB        -7.7980  -11.1520   15.1420 C.3   124  PRO124      0.0268
    106  CG        -7.7000  -12.2730   14.0980 C.3   124  PRO124      0.0207
    107  CD        -6.2400  -12.2650   13.7170 C.3   124  PRO124      0.0892
    108  N        -12.2430  -11.0370   18.7210 N.3   128  GLU128     -0.1245
    109  CA       -12.5080  -10.4500   17.4110 C.3   128  GLU128      0.1567
    110  C        -13.2610  -11.3900   16.4840 C.2   128  GLU128      0.2260
    111  O        -13.6790  -11.0010   15.3950 O.2   128  GLU128     -0.2867
    112  CB       -11.1990  -10.0140   16.7630 C.3   128  GLU128      0.0388
    113  CG       -10.4660   -8.9920   17.5200 C.3   128  GLU128      0.1160
    114  CD        -9.3260   -8.3970   16.7030 C.2   128  GLU128      0.3649
    115  OE1       -9.6190   -7.6550   15.7310 O.co2 128  GLU128     -0.2457
    116  OE2       -8.1530   -8.6410   17.0620 O.co2 128  GLU128     -0.2457
    117  N        -12.6120  -12.9020   11.2910 N.3   132  LYS132     -0.1245
    118  CA       -11.3700  -12.1290   11.2260 C.3   132  LYS132      0.1561
    119  C        -10.1690  -13.0710   11.2520 C.2   132  LYS132      0.2260
    120  O         -9.2240  -12.8610   10.5070 O.2   132  LYS132     -0.2867
    121  CB       -11.2940  -11.0780   12.3270 C.3   132  LYS132      0.0271
    122  CG       -12.4000  -10.0010   12.2250 C.3   132  LYS132      0.0035
    123  CD       -12.0690   -8.7830   13.0630 C.3   132  LYS132      0.0206
    124  CE       -11.1460   -7.8510   12.3270 C.3   132  LYS132      0.1093
    125  NZ       -11.8090   -7.1820   11.1810 N.3   132  LYS132     -0.1314
    126  N         -2.2250  -12.2810   18.8510 N.3   155  ASN155     -0.1240
    127  CA        -2.6020  -11.3300   19.9150 C.3   155  ASN155      0.1653
    128  C         -3.0160  -11.9840   21.2430 C.2   155  ASN155      0.2266
    129  O         -2.7650  -11.4230   22.3280 O.2   155  ASN155     -0.2867
    130  CB        -3.7080  -10.3830   19.4280 C.3   155  ASN155      0.1155
    131  CG        -3.2100   -9.3880   18.3930 C.2   155  ASN155      0.2627
    132  OD1       -2.0050   -9.2770   18.1440 O.2   155  ASN155     -0.2716
    133  ND2       -4.1400   -8.6310   17.8120 N.am  155  ASN155     -0.0877
    134  N         -5.0710   -3.2540   22.7970 N.3   172  PHE172     -0.1241
    135  CA        -4.2520   -2.9850   21.5980 C.3   172  PHE172      0.1605
    136  C         -3.0040   -2.1760   21.9080 C.2   172  PHE172      0.2264
    137  O         -2.0040   -2.2680   21.1930 O.2   172  PHE172     -0.2867
    138  CB        -5.0920   -2.3690   20.4740 C.3   172  PHE172      0.0534
    139  CG        -5.9870   -3.3680   19.7940 C.ar  172  PHE172     -0.0203
    140  CD1       -5.4310   -4.3880   19.0250 C.ar  172  PHE172     -0.0042
    141  CD2       -7.3810   -3.3020   19.9200 C.ar  172  PHE172     -0.0042
    142  CE1       -6.2450   -5.3260   18.3720 C.ar  172  PHE172     -0.0003
    143  CE2       -8.2030   -4.2220   19.2710 C.ar  172  PHE172     -0.0003
    144  CZ        -7.6350   -5.2550   18.5030 C.ar  172  PHE172     -0.0000
    145  N         -0.3940   -4.7080   22.5260 N.3   175  VAL175     -0.1231
    146  CA         0.0350   -5.2090   21.2110 C.3   175  VAL175      0.1692
    147  C          1.0340   -4.2210   20.5750 C.2   175  VAL175      0.2592
    148  O          2.1360   -4.6330   20.1690 O.2   175  VAL175     -0.2718
    149  CB        -1.1460   -5.5210   20.2540 C.3   175  VAL175      0.0266
    150  CG1       -0.5790   -6.0660   18.9160 C.3   175  VAL175      0.0020
    151  CG2       -2.0620   -6.5990   20.8520 C.3   175  VAL175      0.0020
    152  N          0.6670   -2.9280   20.5080 N.am  176  ASP176     -0.1974
    153  CA         1.5660   -1.8920   19.9230 C.3   176  ASP176      0.1709
    154  C          2.9110   -1.9270   20.6330 C.2   176  ASP176      0.2293
    155  O          3.9580   -1.8560   20.0060 O.2   176  ASP176     -0.2864
    156  CB         1.0230   -0.4780   20.0980 C.3   176  ASP176      0.1436
    157  CG        -0.2910   -0.2400   19.3680 C.2   176  ASP176      0.3671
    158  OD1       -0.6580   -1.0060   18.4400 O.co2 176  ASP176     -0.2456
    159  OD2       -0.9740    0.7470   19.7440 O.co2 176  ASP176     -0.2456
    160  N          4.9900   -5.0520   19.5280 N.3   179  LEU179     -0.1245
    161  CA         5.4410   -4.8840   18.1440 C.3   179  LEU179      0.1561
    162  C          6.5790   -3.8670   18.0630 C.2   179  LEU179      0.2260
    163  O          7.5790   -4.0690   17.3610 O.2   179  LEU179     -0.2867
    164  CB         4.2760   -4.4250   17.2780 C.3   179  LEU179      0.0270
    165  CG         3.1660   -5.4720   17.1390 C.3   179  LEU179      0.0019
    166  CD1        1.9460   -4.8500   16.4450 C.3   179  LEU179      0.0001
    167  CD2        3.6370   -6.7030   16.4010 C.3   179  LEU179      0.0001
@<TRIPOS>BOND
     1    56    55    2
     2    57    54    1
     3    54    55    1
     4    54    53    1
     5    40    39    2
     6    82    81    2
     7    39    38    1
     8    86    85    2
     9    89    87    1
    10    84    85    1
    11    84    87    1
    12    84    83    1
    13    81    83   am
    14    81    80    1
    15    88    87    1
    16    37    38    1
    17    85    90   am
    18     6     5    1
    19    45    46    1
    20    38    41    1
    21    93    92    2
    22    80    79    1
    23    60    61    2
    24    60    59    1
    25     7     5    1
    26    92    91    1
    27    46    47    1
    28    46    49    1
    29    58    59    1
    30     5     2    1
    31    47    48    2
    32    90    91    1
    33    41    42    1
    34    44    42   am
    35    59    62    1
    36    79    77   am
    37    78    77    2
    38     2     3    1
    39     2     1    1
    40    42    43    2
    41    49    50    1
    42    77    76    1
    43     8     3   am
    44     8     9    1
    45     3     4    2
    46    51    50   ar
    47     9    10    1
    48    50    52   ar
    49    74    72    1
    50    76    75    1
    51    73    72    1
    52    72    71    1
    53    10    11    2
    54    10    12   am
    55    71    68    1
    56    12    13    1
    57    68    69    1
    58    68    67    1
    59    66    65    2
    60    69    70    2
    61   120   119    2
    62    67    65   am
    63    65    64    1
    64    63    64    1
    65    13    14    1
    66   125   124    1
    67   118   119    1
    68   118   117    1
    69   118   121    1
    70    21    22    1
    71    21    20    1
    72    22    23    2
    73    20    18   am
    74    14    16   am
    75    14    15    2
    76    16    17    1
    77   122   121    1
    78   122   123    1
    79   124   123    1
    80    97    96    2
    81    94    95    1
    82    18    17    1
    83    18    19    2
    84    96    95    1
    85    24    25    1
    86   107   106    1
    87   107   101    1
    88    95    98    1
    89   106   105    1
    90    99    98    1
    91    98   100    1
    92   101   102    1
    93    30    29    2
    94    25    26    1
    95    25    28    1
    96   105   102    1
    97    36    33    1
    98    32    26   am
    99    32    33    1
   100   111   110    2
   101    34    33    1
   102    34    35    2
   103    29    28    1
   104    29    31   am
   105    26    27    2
   106   115   114   ar
   107   102   103    1
   108   167   165    1
   109   166   165    1
   110   110   109    1
   111   114   116   ar
   112   114   113    1
   113   112   109    1
   114   112   113    1
   115   165   164    1
   116   103   104    2
   117   164   161    1
   118   163   162    2
   119   109   108    1
   120   133   131   am
   121   162   161    1
   122   132   131    2
   123   161   160    1
   124   142   144   ar
   125   142   140   ar
   126   131   130    1
   127   158   157   ar
   128   144   143   ar
   129   126   127    1
   130   150   149    1
   131   140   139   ar
   132   143   141   ar
   133   157   159   ar
   134   157   156    1
   135   130   127    1
   136   139   141   ar
   137   139   138    1
   138   127   128    1
   139   153   156    1
   140   153   152    1
   141   153   154    1
   142   155   154    2
   143   148   147    2
   144   149   151    1
   145   149   146    1
   146   138   135    1
   147   152   147   am
   148   147   146    1
   149   137   136    2
   150   146   145    1
   151   128   129    2
   152   135   136    1
   153   135   134    1
