@<TRIPOS>MOLECULE
tmp/2r6sA00.pdb
 109 103 0 0 0
SMALL
GASTEIGER

@<TRIPOS>ATOM
      1  N         21.5220   24.2780   38.4770 N.3   137  MET137     -0.1245
      2  CA        20.9020   23.4420   39.4830 C.3   137  MET137      0.1570
      3  C         21.3590   23.9360   40.8670 C.2   137  MET137      0.2261
      4  O         22.5480   23.8830   41.1990 O.2   137  MET137     -0.2867
      5  CB        21.2870   21.9940   39.2450 C.3   137  MET137      0.0387
      6  CG        20.5530   21.0170   40.1220 C.3   137  MET137      0.0595
      7  SD        21.4550   19.4800   40.2560 S.3   137  MET137     -0.1393
      8  CE        21.4070   18.9270   38.5370 C.3   137  MET137      0.0692
      9  N         22.1970   22.0500   47.1390 N.3   140  HIS140     -0.1241
     10  CA        21.3400   21.2720   47.9780 C.3   140  HIS140      0.1621
     11  C         22.0940   20.0980   48.6370 C.2   140  HIS140      0.2264
     12  O         23.2420   19.8010   48.3150 O.2   140  HIS140     -0.2867
     13  CB        20.2050   20.7090   47.1200 C.3   140  HIS140      0.0745
     14  CG        20.6650   19.7720   46.0340 C.ar  140  HIS140      0.0817
     15  ND1       21.1490   20.2130   44.8200 N.ar  140  HIS140     -0.2268
     16  CD2       20.7520   18.4200   46.0040 C.ar  140  HIS140      0.1154
     17  CE1       21.5140   19.1690   44.0890 C.ar  140  HIS140      0.1986
     18  NE2       21.2640   18.0670   44.7750 N.ar  140  HIS140     -0.2212
     19  N         21.4380   15.9020   49.2290 N.3   142  ASP142     -0.1239
     20  CA        20.6110   14.7600   48.8540 C.3   142  ASP142      0.1674
     21  C         19.9610   14.0960   50.0660 C.2   142  ASP142      0.2266
     22  O         20.3520   14.3080   51.2120 O.2   142  ASP142     -0.2867
     23  CB        21.4320   13.7130   48.1150 C.3   142  ASP142      0.1410
     24  CG        21.7510   14.1140   46.6830 C.2   142  ASP142      0.3668
     25  OD1       21.4250   15.2550   46.2520 O.co2 142  ASP142     -0.2456
     26  OD2       22.3410   13.2410   46.0100 O.co2 142  ASP142     -0.2456
     27  N         14.1820   13.6950   51.8650 N.3   145  TYR145     -0.1241
     28  CA        12.7670   13.3030   52.0520 C.3   145  TYR145      0.1605
     29  C         12.5610   11.8350   52.5100 C.2   145  TYR145      0.2264
     30  O         11.4340   11.3180   52.4270 O.2   145  TYR145     -0.2867
     31  CB        11.9280   13.6110   50.7990 C.3   145  TYR145      0.0534
     32  CG        12.4260   12.9500   49.5410 C.ar  145  TYR145     -0.0201
     33  CD1       12.1580   11.6130   49.2730 C.ar  145  TYR145     -0.0009
     34  CD2       13.1680   13.6630   48.6260 C.ar  145  TYR145     -0.0009
     35  CE1       12.6380   10.9880   48.1220 C.ar  145  TYR145      0.0417
     36  CE2       13.6580   13.0630   47.4720 C.ar  145  TYR145      0.0417
     37  CZ        13.3710   11.7250   47.2190 C.ar  145  TYR145      0.1957
     38  OH        13.8730   11.1330   46.0640 O.3   145  TYR145     -0.2866
     39  N         27.6300   11.5970   48.8070 N.3   153  VAL153     -0.1245
     40  CA        27.1870   11.7200   47.4400 C.3   153  VAL153      0.1561
     41  C         28.4130   11.5190   46.5700 C.2   153  VAL153      0.2260
     42  O         29.4870   12.1240   46.8180 O.2   153  VAL153     -0.2867
     43  CB        26.5800   13.1100   47.1570 C.3   153  VAL153      0.0252
     44  CG1       26.2260   13.2750   45.6740 C.3   153  VAL153      0.0019
     45  CG2       25.3170   13.3040   48.0100 C.3   153  VAL153      0.0019
     46  N         16.8400   21.1470   50.4300 N.3   218  ILE218     -0.1245
     47  CA        16.7020   21.1870   48.9580 C.3   218  ILE218      0.1561
     48  C         15.4430   21.9810   48.6900 C.2   218  ILE218      0.2260
     49  O         14.4020   21.7000   49.3080 O.2   218  ILE218     -0.2867
     50  CB        16.5610   19.7800   48.3030 C.3   218  ILE218      0.0252
     51  CG1       16.6850   19.8630   46.7650 C.3   218  ILE218      0.0019
     52  CG2       15.2140   19.1350   48.6760 C.3   218  ILE218      0.0019
     53  CD1       16.6860   18.5150   46.0530 C.3   218  ILE218      0.0001
     54  N         13.3040   22.1140   46.1770 N.3   220  GLN220     -0.1231
     55  CA        12.2170   21.4050   45.4980 C.3   220  GLN220      0.1698
     56  C         11.3470   20.5460   46.4150 C.2   220  GLN220      0.2592
     57  O         10.1480   20.3790   46.1610 O.2   220  GLN220     -0.2718
     58  CB        12.7770   20.4930   44.3990 C.3   220  GLN220      0.0381
     59  CG        11.6670   19.8150   43.5880 C.3   220  GLN220      0.0905
     60  CD        12.1530   18.9570   42.4530 C.2   220  GLN220      0.2608
     61  OE1       13.3420   18.8990   42.1620 O.2   220  GLN220     -0.2717
     62  NE2       11.2190   18.2750   41.8000 N.am  220  GLN220     -0.0878
     63  N         11.9360   19.9950   47.4730 N.am  221  PHE221     -0.1976
     64  CA        11.2350   19.0770   48.3280 C.3   221  PHE221      0.1639
     65  C         10.8360   19.6050   49.6830 C.2   221  PHE221      0.2290
     66  O         10.0190   18.9820   50.3130 O.2   221  PHE221     -0.2864
     67  CB        12.0080   17.7420   48.4640 C.3   221  PHE221      0.0560
     68  CG        12.3790   17.1240   47.1370 C.ar  221  PHE221     -0.0200
     69  CD1       11.5070   17.1590   46.0690 C.ar  221  PHE221     -0.0042
     70  CD2       13.6100   16.5230   46.9500 C.ar  221  PHE221     -0.0042
     71  CE1       11.8700   16.6400   44.8210 C.ar  221  PHE221     -0.0003
     72  CE2       13.9600   15.9620   45.7140 C.ar  221  PHE221     -0.0003
     73  CZ        13.1010   16.0180   44.6610 C.ar  221  PHE221     -0.0000
     74  N         25.8240   20.5520   47.1690 N.3   266  HIS266     -0.1226
     75  CA        26.2750   20.4410   45.7930 C.3   266  HIS266      0.1752
     76  C         25.1720   20.8690   44.8350 C.2   266  HIS266      0.2596
     77  O         23.9680   20.8670   45.1790 O.2   266  HIS266     -0.2718
     78  CB        26.7040   19.0050   45.4570 C.3   266  HIS266      0.0759
     79  CG        25.5770   18.0180   45.5420 C.ar  266  HIS266      0.0818
     80  ND1       25.0850   17.5620   46.7450 N.ar  266  HIS266     -0.2268
     81  CD2       24.8160   17.4390   44.5800 C.ar  266  HIS266      0.1154
     82  CE1       24.0960   16.7100   46.5160 C.ar  266  HIS266      0.1986
     83  NE2       23.9040   16.6270   45.2120 N.ar  266  HIS266     -0.2212
     84  N         25.5970   21.1460   43.6030 N.am  267  GLY267     -0.1957
     85  CA        24.7200   21.6610   42.5640 C.3   267  GLY267      0.1869
     86  C         25.4500   21.5830   41.2410 C.2   267  GLY267      0.2309
     87  O         26.5200   20.9660   41.1420 O.2   267  GLY267     -0.2863
     88  N         25.9290    8.1360   39.4100 N.3   283  ARG283     -0.1245
     89  CA        25.8330    8.4920   40.8020 C.3   283  ARG283      0.1563
     90  C         25.6720    7.2930   41.7300 C.2   283  ARG283      0.2260
     91  O         25.1210    6.2590   41.3420 O.2   283  ARG283     -0.2867
     92  CB        24.6700    9.4530   41.0010 C.3   283  ARG283      0.0307
     93  CG        23.3100    8.8380   40.7670 C.3   283  ARG283      0.0489
     94  CD        22.2080    9.8910   40.8950 C.3   283  ARG283      0.2205
     95  NE        20.9160    9.2180   40.9470 N.pl3 283  ARG283     -0.0865
     96  CZ        19.7410    9.8290   40.8430 C.cat 283  ARG283      0.5346
     97  NH1       19.6720   11.1230   40.6350 N.pl3 283  ARG283      0.1354
     98  NH2       18.6160    9.1260   40.9530 N.pl3 283  ARG283      0.1354
     99  N         24.7960    7.1350   46.2010 N.3   285  ARG285     -0.1245
    100  CA        24.5320    7.8070   47.4500 C.3   285  ARG285      0.1563
    101  C         24.4200    6.7750   48.5110 C.2   285  ARG285      0.2260
    102  O         23.8640    5.7240   48.2660 O.2   285  ARG285     -0.2867
    103  CB        23.2490    8.6010   47.4030 C.3   285  ARG285      0.0307
    104  CG        23.3650    9.9980   46.8010 C.3   285  ARG285      0.0489
    105  CD        23.3410   10.0000   45.2610 C.3   285  ARG285      0.2205
    106  NE        22.1960    9.2640   44.7130 N.pl3 285  ARG285     -0.0865
    107  CZ        20.9570    9.7410   44.6410 C.cat 285  ARG285      0.5346
    108  NH1       20.6750   10.9510   45.0490 N.pl3 285  ARG285      0.1354
    109  NH2       19.9890    9.0070   44.1330 N.pl3 285  ARG285      0.1354
@<TRIPOS>BOND
     1     1     2    1
     2     8     7    1
     3     5     2    1
     4     5     6    1
     5    88    89    1
     6     2     3    1
     7     6     7    1
     8    97    96    1
     9    93    94    1
    10    93    92    1
    11    89    92    1
    12    89    90    1
    13    96    95    2
    14    96    98    1
    15     3     4    2
    16    94    95    1
    17    87    86    2
    18    86    85    1
    19    91    90    2
    20    62    60   am
    21    61    60    2
    22    60    59    1
    23    85    84    1
    24    59    58    1
    25    84    76   am
    26    17    18   ar
    27    17    15   ar
    28   109   107    1
    29    58    55    1
    30    81    83   ar
    31    81    79   ar
    32   107   106    2
    33   107   108    1
    34    73    71   ar
    35    73    72   ar
    36   106   105    1
    37    18    16   ar
    38    15    14   ar
    39    71    69   ar
    40    76    77    2
    41    76    75    1
    42    83    82   ar
    43   105   104    1
    44    78    79    1
    45    78    75    1
    46    55    54    1
    47    55    56    1
    48    79    80   ar
    49    44    43    1
    50    72    70   ar
    51    75    74    1
    52    16    14   ar
    53    26    24   ar
    54    14    13    1
    55    53    51    1
    56    38    37    1
    57    69    68   ar
    58    57    56    2
    59    99   100    1
    60    25    24   ar
    61    56    63   am
    62    82    80   ar
    63    41    42    2
    64    41    40    1
    65    24    23    1
    66    51    50    1
    67   104   103    1
    68    70    68   ar
    69    13    10    1
    70    68    67    1
    71     9    10    1
    72    43    40    1
    73    43    45    1
    74    37    36   ar
    75    37    35   ar
    76   103   100    1
    77    40    39    1
    78   100   101    1
    79    36    34   ar
    80    63    64    1
    81    10    11    1
    82    23    20    1
    83    35    33   ar
    84   102   101    2
    85    50    52    1
    86    50    47    1
    87    12    11    2
    88    64    67    1
    89    64    65    1
    90    34    32   ar
    91    48    47    1
    92    48    49    2
    93    20    19    1
    94    20    21    1
    95    47    46    1
    96    33    32   ar
    97    32    31    1
    98    65    66    2
    99    21    22    2
   100    31    28    1
   101    27    28    1
   102    28    29    1
   103    30    29    2
