@<TRIPOS>MOLECULE
tmp/2r6tB00.pdb
 133 129 0 0 0
SMALL
GASTEIGER

@<TRIPOS>ATOM
      1  N         13.1230   36.1410   40.0550 N.3     1  ILE1       -0.1231
      2  CA        13.6370   34.8790   40.6880 C.3     1  ILE1        0.1692
      3  C         14.6040   35.1400   41.8550 C.2     1  ILE1        0.2592
      4  O         14.8220   34.2580   42.6920 O.2     1  ILE1       -0.2718
      5  CB        14.2560   33.8690   39.6370 C.3     1  ILE1        0.0266
      6  CG1       15.4300   34.4960   38.8780 C.3     1  ILE1        0.0019
      7  CG2       13.1630   33.3230   38.6920 C.3     1  ILE1        0.0020
      8  CD1       16.0090   33.6150   37.7660 C.3     1  ILE1        0.0001
      9  N         15.1860   36.3450   41.8940 N.am    2  TYR2       -0.1962
     10  CA        15.9900   36.7620   43.0400 C.3     2  TYR2        0.1771
     11  C         15.1180   37.4430   44.0730 C.2     2  TYR2        0.2620
     12  O         14.5520   38.4900   43.8000 O.2     2  TYR2       -0.2715
     13  CB        17.1820   37.6440   42.6460 C.3     2  TYR2        0.0574
     14  CG        16.9010   38.8410   41.7520 C.ar    2  TYR2       -0.0198
     15  CD1       16.7090   40.1230   42.2910 C.ar    2  TYR2       -0.0009
     16  CD2       16.8860   38.7060   40.3660 C.ar    2  TYR2       -0.0009
     17  CE1       16.4740   41.2220   41.4610 C.ar    2  TYR2        0.0417
     18  CE2       16.6540   39.7880   39.5440 C.ar    2  TYR2        0.0417
     19  CZ        16.4500   41.0390   40.0850 C.ar    2  TYR2        0.1957
     20  OH        16.2220   42.0940   39.2310 O.3     2  TYR2       -0.2866
     21  N         14.9810   36.8240   45.2440 N.am    3  THR3       -0.1937
     22  CA        14.2350   37.4320   46.3480 C.3     3  THR3        0.2028
     23  C         15.1490   38.2640   47.2390 C.2     3  THR3        0.2642
     24  O         14.7450   39.3250   47.6990 O.2     3  THR3       -0.2714
     25  CB        13.4800   36.3980   47.2260 C.3     3  THR3        0.1808
     26  OG1       14.4180   35.6750   48.0420 O.3     3  THR3       -0.2208
     27  CG2       12.6440   35.4360   46.3560 C.3     3  THR3        0.0379
     28  N         16.3720   37.7760   47.4610 N.am    4  LYS4       -0.1963
     29  CA        17.3950   38.3970   48.3390 C.3     4  LYS4        0.1728
     30  C         17.3350   37.8810   49.7920 C.2     4  LYS4        0.2616
     31  O         18.1610   38.2550   50.6290 O.2     4  LYS4       -0.2715
     32  CB        17.3850   39.9440   48.2690 C.3     4  LYS4        0.0311
     33  CG        17.6110   40.5160   46.8560 C.3     4  LYS4        0.0038
     34  CD        17.5420   42.0380   46.8120 C.3     4  LYS4        0.0206
     35  CE        17.6420   42.5340   45.3540 C.3     4  LYS4        0.1093
     36  NZ        17.9500   43.9940   45.1830 N.3     4  LYS4       -0.1314
     37  N         16.3700   37.0010   50.0690 N.am    5  ASN5       -0.1958
     38  CA        16.2180   36.3310   51.3760 C.3     5  ASN5        0.1819
     39  C         17.3900   35.4250   51.7870 C.2     5  ASN5        0.2622
     40  O         17.5180   35.0500   52.9600 O.2     5  ASN5       -0.2715
     41  CB        14.9190   35.5010   51.3900 C.3     5  ASN5        0.1195
     42  CG        13.6550   36.3680   51.3290 C.2     5  ASN5        0.2630
     43  OD1       13.6300   37.5050   51.8150 O.2     5  ASN5       -0.2716
     44  ND2       12.5980   35.8220   50.7450 N.am    5  ASN5       -0.0877
     45  N         18.2100   35.0500   50.8040 N.am    6  GLY6       -0.1940
     46  CA        19.3440   34.1600   51.0030 C.3     6  GLY6        0.2014
     47  C         20.6660   34.8980   51.0980 C.2     6  GLY6        0.2638
     48  O         21.7020   34.2830   51.3900 O.2     6  GLY6       -0.2714
     49  N         20.6290   36.2120   50.8700 N.am    7  ASP7       -0.1971
     50  CA        21.8110   37.0710   50.9330 C.3     7  ASP7        0.1709
     51  C         22.6060   37.0090   52.2580 C.2     7  ASP7        0.2293
     52  O         23.8240   37.1880   52.2510 O.2     7  ASP7       -0.2864
     53  CB        21.4360   38.5200   50.5900 C.3     7  ASP7        0.1436
     54  CG        21.0780   38.7120   49.1100 C.2     7  ASP7        0.3671
     55  OD1       20.9890   37.7340   48.3390 O.co2   7  ASP7       -0.2456
     56  OD2       20.8790   39.8650   48.7020 O.co2   7  ASP7       -0.2456
     57  N         21.0500   32.2120   54.6850 N.3    10  GLN10      -0.1231
     58  CA        20.0160   31.2620   55.1200 C.3    10  GLN10       0.1698
     59  C         19.0720   30.9740   53.9730 C.2    10  GLN10       0.2593
     60  O         19.1640   31.6050   52.9300 O.2    10  GLN10      -0.2718
     61  CB        19.2530   31.7630   56.3540 C.3    10  GLN10       0.0381
     62  CG        20.0230   31.6180   57.6600 C.3    10  GLN10       0.0905
     63  CD        19.2460   32.1060   58.8900 C.2    10  GLN10       0.2608
     64  OE1       18.6590   33.1950   58.8920 O.2    10  GLN10      -0.2717
     65  NE2       19.2610   31.3010   59.9530 N.am   10  GLN10      -0.0878
     66  N         18.1810   30.0100   54.1630 N.am   11  THR11      -0.1939
     67  CA        17.2250   29.6130   53.1330 C.3    11  THR11       0.2028
     68  C         16.1680   28.7040   53.7480 C.2    11  THR11       0.2642
     69  O         16.3720   28.1610   54.8260 O.2    11  THR11      -0.2714
     70  CB        17.9370   28.9370   51.9130 C.3    11  THR11       0.1808
     71  OG1       17.0180   28.7710   50.8290 O.3    11  THR11      -0.2208
     72  CG2       18.5390   27.6030   52.2850 C.3    11  THR11       0.0379
     73  N         15.0350   28.5650   53.0730 N.am   12  ARG12      -0.1963
     74  CA        13.9510   27.6810   53.5290 C.3    12  ARG12       0.1729
     75  C         14.1000   26.2710   52.9600 C.2    12  ARG12       0.2616
     76  O         14.8400   26.0350   52.0070 O.2    12  ARG12      -0.2715
     77  CB        12.5650   28.2550   53.1800 C.3    12  ARG12       0.0348
     78  CG        12.3870   29.6730   53.6370 C.3    12  ARG12       0.0492
     79  CD        10.9300   30.0200   53.7190 C.3    12  ARG12       0.2205
     80  NE        10.7660   31.3530   54.2610 N.pl3  12  ARG12      -0.0865
     81  CZ        10.7700   32.4390   53.5120 C.cat  12  ARG12       0.5346
     82  NH1       10.9150   32.3240   52.1960 N.pl3  12  ARG12       0.1354
     83  NH2       10.6260   33.6240   54.0750 N.pl3  12  ARG12       0.1354
     84  N         13.4260   25.3200   53.5820 N.am   13  ILE13      -0.1977
     85  CA        13.2990   23.9940   53.0040 C.3    13  ILE13       0.1596
     86  C         11.8120   23.8740   52.6840 C.2    13  ILE13       0.2287
     87  O         11.1230   24.8960   52.5940 O.2    13  ILE13      -0.2864
     88  CB        13.8250   22.8830   53.9600 C.3    13  ILE13       0.0276
     89  CG1       13.1980   23.0070   55.3590 C.3    13  ILE13       0.0022
     90  CG2       15.3790   22.9090   54.0200 C.3    13  ILE13       0.0022
     91  CD1       13.5660   21.8780   56.2760 C.3    13  ILE13       0.0001
     92  N         22.7270   27.6490   54.9080 N.3    20  LYS20      -0.1245
     93  CA        23.0240   26.9620   53.6490 C.3    20  LYS20       0.1561
     94  C         24.0610   25.8280   53.7530 C.2    20  LYS20       0.2260
     95  O         24.0720   24.9300   52.9130 O.2    20  LYS20      -0.2867
     96  CB        23.3790   27.9650   52.5480 C.3    20  LYS20       0.0271
     97  CG        22.1400   28.6120   51.9650 C.3    20  LYS20       0.0035
     98  CD        22.4320   29.8470   51.1500 C.3    20  LYS20       0.0206
     99  CE        21.1380   30.5470   50.7790 C.3    20  LYS20       0.1093
    100  NZ        21.3870   31.8150   50.0250 N.3    20  LYS20      -0.1314
    101  N         20.4080   20.8560   53.3110 N.3    25  VAL25      -0.1231
    102  CA        20.6910   21.7340   52.1720 C.3    25  VAL25       0.1692
    103  C         21.8190   21.1890   51.2540 C.2    25  VAL25       0.2591
    104  O         21.6670   21.1890   50.0390 O.2    25  VAL25      -0.2718
    105  CB        20.9420   23.2300   52.6440 C.3    25  VAL25       0.0266
    106  CG1       21.0350   24.1800   51.4730 C.3    25  VAL25       0.0020
    107  CG2       19.8010   23.7190   53.5380 C.3    25  VAL25       0.0020
    108  N         22.9200   20.7230   51.8500 N.am   26  ALA26      -0.1980
    109  CA        24.0480   20.1230   51.1270 C.3    26  ALA26       0.1597
    110  C         23.6530   18.8290   50.4030 C.2    26  ALA26       0.2287
    111  O         24.0320   18.6050   49.2370 O.2    26  ALA26      -0.2864
    112  CB        25.1930   19.8570   52.0780 C.3    26  ALA26       0.0319
    113  N         20.5390   18.0520   49.5060 N.3    28  TYR28      -0.1227
    114  CA        19.5940   18.5030   48.4900 C.3    28  TYR28       0.1736
    115  C         20.3360   19.1480   47.3070 C.2    28  TYR28       0.2596
    116  O         19.9970   18.9110   46.1480 O.2    28  TYR28      -0.2718
    117  CB        18.5160   19.4510   49.1090 C.3    28  TYR28       0.0548
    118  CG        17.6820   20.2120   48.0810 C.ar   28  TYR28      -0.0200
    119  CD1       16.6850   19.5710   47.3260 C.ar   28  TYR28      -0.0009
    120  CD2       17.9030   21.5600   47.8460 C.ar   28  TYR28      -0.0009
    121  CE1       15.9170   20.2670   46.3500 C.ar   28  TYR28       0.0417
    122  CE2       17.1560   22.2690   46.8790 C.ar   28  TYR28       0.0417
    123  CZ        16.1700   21.6180   46.1330 C.ar   28  TYR28       0.1957
    124  OH        15.4590   22.3420   45.1860 O.3    28  TYR28      -0.2866
    125  N         21.3530   19.9470   47.6220 N.am   29  GLY29      -0.1957
    126  CA        22.2240   20.6120   46.6360 C.3    29  GLY29       0.1869
    127  C         23.1520   19.6960   45.8570 C.2    29  GLY29       0.2309
    128  O         23.4040   19.9280   44.6770 O.2    29  GLY29      -0.2863
    129  N         14.5560   17.6740   50.8850 N.3    71  ALA71      -0.1245
    130  CA        14.1860   18.9840   51.4360 C.3    71  ALA71       0.1562
    131  C         12.9420   18.9090   52.3440 C.2    71  ALA71       0.2260
    132  O         12.5190   19.9160   52.9050 O.2    71  ALA71      -0.2867
    133  CB        13.9700   19.9850   50.3180 C.3    71  ALA71       0.0290
@<TRIPOS>BOND
     1     8     6    1
     2     7     5    1
     3     6     5    1
     4    20    19    1
     5    18    19   ar
     6    18    16   ar
     7     5     2    1
     8     1     2    1
     9    19    17   ar
    10    16    14   ar
    11     2     3    1
    12    17    15   ar
    13    14    15   ar
    14    14    13    1
    15     3     9   am
    16     3     4    2
    17     9    10    1
    18    13    10    1
    19    10    11    1
    20    12    11    2
    21    11    21   am
    22   128   127    2
    23    36    35    1
    24   124   123    1
    25    21    22    1
    26    35    34    1
    27   127   126    1
    28   123   121   ar
    29   123   122   ar
    30   116   115    2
    31    22    25    1
    32    22    23    1
    33   121   119   ar
    34    27    25    1
    35   126   125    1
    36    34    33    1
    37    33    32    1
    38   122   120   ar
    39    25    26    1
    40    23    28   am
    41    23    24    2
    42   115   125   am
    43   115   114    1
    44   119   118   ar
    45    28    29    1
    46   120   118   ar
    47   118   117    1
    48    32    29    1
    49    55    54   ar
    50    29    30    1
    51   114   117    1
    52   114   113    1
    53    56    54   ar
    54    54    53    1
    55   111   110    2
    56    30    37   am
    57    30    31    2
    58   100    99    1
    59   104   103    2
    60    37    38    1
    61   133   130    1
    62   110   109    1
    63    53    50    1
    64    44    42   am
    65    99    98    1
    66    45    46    1
    67    45    39   am
    68    71    70    1
    69    49    50    1
    70    49    47   am
    71   129   130    1
    72    50    51    1
    73    46    47    1
    74    47    48    2
    75   109   108    1
    76   109   112    1
    77    98    97    1
    78   103   108   am
    79   103   102    1
    80    42    41    1
    81    42    43    2
    82    38    41    1
    83    38    39    1
    84   130   131    1
    85   106   105    1
    86    39    40    2
    87    70    72    1
    88    70    67    1
    89    97    96    1
    90    76    75    2
    91   102   105    1
    92   102   101    1
    93    82    81    1
    94    52    51    2
    95   131   132    2
    96    96    93    1
    97    87    86    2
    98   105   107    1
    99    86    85    1
   100    95    94    2
   101    60    59    2
   102    75    74    1
   103    75    84   am
   104    85    84    1
   105    85    88    1
   106    73    74    1
   107    73    68   am
   108    67    68    1
   109    67    66    1
   110    77    74    1
   111    77    78    1
   112    81    83    1
   113    81    80    2
   114    78    79    1
   115    93    94    1
   116    93    92    1
   117    79    80    1
   118    68    69    2
   119    88    90    1
   120    88    89    1
   121    59    66   am
   122    59    58    1
   123    57    58    1
   124    58    61    1
   125    89    91    1
   126    61    62    1
   127    62    63    1
   128    63    64    2
   129    63    65   am
