@<TRIPOS>MOLECULE
tmp/2r6vA01.pdb
 103 102 0 0 0
SMALL
GASTEIGER

@<TRIPOS>ATOM
      1  N         41.1110    4.8970   32.4490 N.3     3  HIS3       -0.1241
      2  CA        39.7240    4.9320   32.9090 C.3     3  HIS3        0.1621
      3  C         39.4340    3.6770   33.7190 C.2     3  HIS3        0.2264
      4  O         39.9310    2.5890   33.4330 O.2     3  HIS3       -0.2867
      5  CB        38.8020    5.0060   31.6890 C.3     3  HIS3        0.0745
      6  CG        37.4060    5.4270   31.9920 C.ar    3  HIS3        0.0817
      7  ND1       36.4900    4.5870   32.5880 N.ar    3  HIS3       -0.2268
      8  CD2       36.7490    6.5760   31.7350 C.ar    3  HIS3        0.1154
      9  CE1       35.3400    5.2230   32.7310 C.ar    3  HIS3        0.1986
     10  NE2       35.4620    6.4310   32.2150 N.ar    3  HIS3       -0.2212
     11  N         37.8980    6.6580   23.1900 N.3    13  TYR13      -0.1227
     12  CA        37.3860    8.0250   23.2350 C.3    13  TYR13       0.1736
     13  C         38.4840    9.0600   23.1580 C.2    13  TYR13       0.2595
     14  O         38.2020   10.2160   22.8250 O.2    13  TYR13      -0.2718
     15  CB        36.4810    8.2440   24.4490 C.3    13  TYR13       0.0548
     16  CG        37.1120    8.1880   25.8130 C.ar   13  TYR13      -0.0200
     17  CD1       37.9460    9.1900   26.2810 C.ar   13  TYR13      -0.0009
     18  CD2       36.8150    7.1690   26.6820 C.ar   13  TYR13      -0.0009
     19  CE1       38.4950    9.1380   27.5370 C.ar   13  TYR13       0.0417
     20  CE2       37.3320    7.1320   27.9460 C.ar   13  TYR13       0.0417
     21  CZ        38.1810    8.1080   28.3840 C.ar   13  TYR13       0.1957
     22  OH        38.6990    8.0270   29.6730 O.3    13  TYR13      -0.2866
     23  N         39.7170    8.6660   23.4630 N.am   14  ARG14      -0.1980
     24  CA        40.7940    9.6180   23.4260 C.3    14  ARG14       0.1597
     25  C         41.0860   10.1470   22.0210 C.2    14  ARG14       0.2287
     26  O         41.7020   11.2040   21.8730 O.2    14  ARG14      -0.2864
     27  CB        42.0580    9.0420   24.0830 C.3    14  ARG14       0.0334
     28  CG        43.1200   10.0820   24.3790 C.3    14  ARG14       0.0492
     29  CD        42.7060   10.9690   25.4860 C.3    14  ARG14       0.2205
     30  NE        42.6780   10.2320   26.7380 N.pl3  14  ARG14      -0.0865
     31  CZ        42.0030   10.6220   27.8150 C.cat  14  ARG14       0.5346
     32  NH1       41.2480   11.7020   27.8080 N.pl3  14  ARG14       0.1354
     33  NH2       42.0590    9.8850   28.8910 N.pl3  14  ARG14       0.1354
     34  N         39.9880   13.6610   21.6280 N.3    17  TYR17      -0.1241
     35  CA        40.6360   14.6320   22.4960 C.3    17  TYR17       0.1605
     36  C         41.7360   15.4010   21.7340 C.2    17  TYR17       0.2264
     37  O         42.2880   14.9120   20.7560 O.2    17  TYR17      -0.2867
     38  CB        41.1920   13.9360   23.7510 C.3    17  TYR17       0.0534
     39  CG        40.1350   13.6980   24.8090 C.ar   17  TYR17      -0.0201
     40  CD1       39.0630   12.8550   24.5920 C.ar   17  TYR17      -0.0009
     41  CD2       40.1640   14.4420   25.9910 C.ar   17  TYR17      -0.0009
     42  CE1       38.0630   12.7250   25.5300 C.ar   17  TYR17       0.0417
     43  CE2       39.1670   14.3030   26.9210 C.ar   17  TYR17       0.0417
     44  CZ        38.0970   13.4710   26.7050 C.ar   17  TYR17       0.1957
     45  OH        37.0770   13.3430   27.6330 O.3    17  TYR17      -0.2866
     46  N         33.4010   16.6490   30.3060 N.3    36  ASP36      -0.1225
     47  CA        33.9170   16.8870   28.9550 C.3    36  ASP36       0.1805
     48  C         32.8430   16.5580   27.8920 C.2    36  ASP36       0.2597
     49  O         32.9100   17.0970   26.7880 O.2    36  ASP36      -0.2718
     50  CB        35.0920   15.9860   28.6460 C.3    36  ASP36       0.1424
     51  CG        36.3740   16.3000   29.3800 C.2    36  ASP36       0.3668
     52  OD1       36.5050   17.3600   29.9960 O.co2  36  ASP36      -0.2456
     53  OD2       37.2510   15.3980   29.3000 O.co2  36  ASP36      -0.2456
     54  N         31.9300   15.6570   28.2060 N.am   37  TRP37      -0.1976
     55  CA        31.0930   15.0710   27.1460 C.3    37  TRP37       0.1640
     56  C         29.7900   15.8640   27.0170 C.2    37  TRP37       0.2290
     57  O         28.7030   15.4590   27.4150 O.2    37  TRP37      -0.2864
     58  CB        30.9010   13.5920   27.4040 C.3    37  TRP37       0.0576
     59  CG        32.1690   12.8040   27.3540 C.ar   37  TRP37       0.0006
     60  CD1       33.4180   13.2420   27.0140 C.ar   37  TRP37       0.0946
     61  CD2       32.3180   11.3950   27.6640 C.ar   37  TRP37       0.0152
     62  NE1       34.3180   12.2280   27.1100 N.ar   37  TRP37      -0.2442
     63  CE2       33.6830   11.0840   27.5030 C.ar   37  TRP37       0.0810
     64  CE3       31.4300   10.3760   27.9930 C.ar   37  TRP37       0.0012
     65  CZ2       34.1880    9.8130   27.7320 C.ar   37  TRP37       0.0191
     66  CZ3       31.9320    9.1050   28.1980 C.ar   37  TRP37       0.0001
     67  CH2       33.2950    8.8490   28.0880 C.ar   37  TRP37       0.0015
     68  N         26.6050   13.8700   28.6390 N.3    51  ALA51      -0.1245
     69  CA        26.6390   12.4560   28.9810 C.3    51  ALA51       0.1562
     70  C         27.1220   12.3180   30.4230 C.2    51  ALA51       0.2260
     71  O         28.2370   12.7320   30.7200 O.2    51  ALA51      -0.2867
     72  CB        27.5440   11.7140   28.0150 C.3    51  ALA51       0.0290
     73  N         27.3110    8.9260   38.9550 N.3    56  ARG56      -0.1245
     74  CA        27.5560   10.3040   39.4210 C.3    56  ARG56       0.1563
     75  C         26.4430   10.7400   40.3430 C.2    56  ARG56       0.2260
     76  O         25.2690   10.5380   40.0750 O.2    56  ARG56      -0.2867
     77  CB        27.6830   11.2890   38.2510 C.3    56  ARG56       0.0307
     78  CG        28.6440   10.8960   37.1520 C.3    56  ARG56       0.0489
     79  CD        30.0220   10.4250   37.5790 C.3    56  ARG56       0.2205
     80  NE        30.8420   10.1140   36.4050 N.pl3  56  ARG56      -0.0865
     81  CZ        31.7750    9.1860   36.3310 C.cat  56  ARG56       0.5346
     82  NH1       32.1010    8.4060   37.3640 N.pl3  56  ARG56       0.1354
     83  NH2       32.3580    8.9980   35.1570 N.pl3  56  ARG56       0.1354
     84  N         26.5400    5.6120   29.9030 N.3   130  HIS130     -0.1241
     85  CA        26.1180    6.9260   30.3450 C.3   130  HIS130      0.1621
     86  C         24.6850    7.2320   29.9460 C.2   130  HIS130      0.2264
     87  O         24.1340    6.6340   29.0000 O.2   130  HIS130     -0.2867
     88  CB        27.0030    8.0420   29.7530 C.3   130  HIS130      0.0745
     89  CG        28.3800    8.1440   30.3190 C.ar  130  HIS130      0.0817
     90  ND1       29.2860    7.1090   30.2790 N.ar  130  HIS130     -0.2268
     91  CD2       29.0280    9.1860   30.9080 C.ar  130  HIS130      0.1154
     92  CE1       30.4120    7.4890   30.8580 C.ar  130  HIS130      0.1986
     93  NE2       30.2780    8.7410   31.2540 N.ar  130  HIS130     -0.2212
     94  N         40.9740   19.5690   28.0050 N.3   161  HIS161     -0.1241
     95  CA        41.4690   18.3780   28.6780 C.3   161  HIS161      0.1621
     96  C         42.2200   17.5320   27.6410 C.2   161  HIS161      0.2264
     97  O         41.6560   17.2140   26.5890 O.2   161  HIS161     -0.2867
     98  CB        40.2580   17.6380   29.2140 C.3   161  HIS161      0.0745
     99  CG        40.5480   16.5100   30.1520 C.ar  161  HIS161      0.0817
    100  ND1       39.6030   15.5650   30.4540 N.ar  161  HIS161     -0.2268
    101  CD2       41.6150   16.2450   30.9410 C.ar  161  HIS161      0.1154
    102  CE1       40.0910   14.7350   31.3660 C.ar  161  HIS161      0.1986
    103  NE2       41.3030   15.1410   31.6900 N.ar  161  HIS161     -0.2212
@<TRIPOS>BOND
     1    37    36    2
     2    34    35    1
     3    36    35    1
     4    26    25    2
     5    25    24    1
     6    35    38    1
     7    14    13    2
     8    13    12    1
     9    13    23   am
    10    11    12    1
    11    12    15    1
    12    24    23    1
    13    24    27    1
    14    38    39    1
    15    27    28    1
    16    28    29    1
    17    15    16    1
    18    40    39   ar
    19    40    42   ar
    20    39    41   ar
    21    29    30    1
    22    42    44   ar
    23    16    17   ar
    24    16    18   ar
    25    41    43   ar
    26    17    19   ar
    27    97    96    2
    28    18    20   ar
    29    44    43   ar
    30    44    45    1
    31    30    31    2
    32    49    48    2
    33    60    62   ar
    34    60    59   ar
    35    56    55    1
    36    56    57    2
    37    62    63   ar
    38    55    58    1
    39    55    54    1
    40    59    58    1
    41    59    61   ar
    42    63    61   ar
    43    63    65   ar
    44    19    21   ar
    45    96    95    1
    46    61    64   ar
    47    65    67   ar
    48    32    31    1
    49    31    33    1
    50    48    54   am
    51    48    47    1
    52    20    21   ar
    53    64    66   ar
    54    94    95    1
    55    72    69    1
    56    67    66   ar
    57    21    22    1
    58    68    69    1
    59    50    47    1
    60    50    51    1
    61    95    98    1
    62    47    46    1
    63    69    70    1
    64    87    86    2
    65    98    99    1
    66    53    51   ar
    67    51    52   ar
    68    88    89    1
    69    88    85    1
    70    84    85    1
    71    86    85    1
    72    99   100   ar
    73    99   101   ar
    74    90    89   ar
    75    90    92   ar
    76    89    91   ar
    77    70    71    2
    78   100   102   ar
    79    92    93   ar
    80    91    93   ar
    81   101   103   ar
    82   102   103   ar
    83     5     6    1
    84     5     2    1
    85     8     6   ar
    86     8    10   ar
    87     6     7   ar
    88    10     9   ar
    89     1     2    1
    90     7     9   ar
    91     2     3    1
    92     4     3    2
    93    83    81    1
    94    81    80    2
    95    81    82    1
    96    80    79    1
    97    78    79    1
    98    78    77    1
    99    77    74    1
   100    73    74    1
   101    74    75    1
   102    76    75    2
