@<TRIPOS>MOLECULE
tmp/2r79A00.pdb
 149 141 0 0 0
SMALL
GASTEIGER

@<TRIPOS>ATOM
      1  N        108.6480   88.3260  -12.4880 N.3    30  THR30      -0.1203
      2  CA       110.0100   88.3870  -12.9970 C.3    30  THR30       0.1994
      3  C        111.1200   88.7840  -12.0110 C.2    30  THR30       0.2618
      4  O        112.2900   88.4980  -12.2670 O.2    30  THR30      -0.2717
      5  CB       110.0870   89.3180  -14.2270 C.3    30  THR30       0.1784
      6  OG1      109.6320   90.6250  -13.8640 O.3    30  THR30      -0.2211
      7  CG2      109.2120   88.7850  -15.3540 C.3    30  THR30       0.0376
      8  N        110.7860   89.4300  -10.8960 N.am   31  THR31      -0.1952
      9  CA       111.8370   89.8100   -9.9440 C.3    31  THR31       0.1897
     10  C        112.2230   88.6570   -9.0240 C.2    31  THR31       0.2313
     11  O        113.1600   88.7770   -8.2350 O.2    31  THR31      -0.2863
     12  CB       111.4330   91.0090   -9.0460 C.3    31  THR31       0.1794
     13  OG1      110.2950   90.6550   -8.2520 O.3    31  THR31      -0.2208
     14  CG2      111.1160   92.2350   -9.8890 C.3    31  THR31       0.0378
     15  N        114.0380   85.6500   -8.7540 N.3    33  GLN33      -0.1245
     16  CA       115.0890   84.8900   -9.4050 C.3    33  GLN33       0.1566
     17  C        115.9370   84.0670   -8.4500 C.2    33  GLN33       0.2260
     18  O        116.9710   83.5160   -8.8400 O.2    33  GLN33      -0.2867
     19  CB       115.9810   85.8590  -10.1770 C.3    33  GLN33       0.0367
     20  CG       115.2640   86.5750  -11.3150 C.3    33  GLN33       0.0905
     21  CD       116.0050   87.8110  -11.7870 C.2    33  GLN33       0.2608
     22  OE1      117.2360   87.8390  -11.8200 O.2    33  GLN33      -0.2717
     23  NE2      115.2560   88.8400  -12.1680 N.am   33  GLN33      -0.0878
     24  N        105.9540   91.2300  -14.6000 N.3    46  TYR46      -0.1227
     25  CA       106.5770   92.0930  -13.6080 C.3    46  TYR46       0.1736
     26  C        105.5650   92.3790  -12.5000 C.2    46  TYR46       0.2595
     27  O        104.3650   92.5040  -12.7570 O.2    46  TYR46      -0.2718
     28  CB       107.0410   93.3950  -14.2640 C.3    46  TYR46       0.0548
     29  CG       107.7530   94.3390  -13.3240 C.ar   46  TYR46      -0.0200
     30  CD1      108.7880   93.8900  -12.5010 C.ar   46  TYR46      -0.0009
     31  CD2      107.4060   95.6880  -13.2700 C.ar   46  TYR46      -0.0009
     32  CE1      109.4590   94.7610  -11.6460 C.ar   46  TYR46       0.0417
     33  CE2      108.0730   96.5710  -12.4190 C.ar   46  TYR46       0.0417
     34  CZ       109.0970   96.1010  -11.6090 C.ar   46  TYR46       0.1957
     35  OH       109.7510   96.9680  -10.7620 O.3    46  TYR46      -0.2866
     36  N        106.0540   92.4840  -11.2690 N.am   47  GLN47      -0.1965
     37  CA       105.1870   92.7230  -10.1200 C.3    47  GLN47       0.1733
     38  C        104.3200   93.9800  -10.2140 C.2    47  GLN47       0.2616
     39  O        103.1640   93.9750   -9.7910 O.2    47  GLN47      -0.2715
     40  CB       106.0210   92.7850   -8.8380 C.3    47  GLN47       0.0408
     41  CG       106.7440   94.0970   -8.6080 C.3    47  GLN47       0.0908
     42  CD       107.3280   94.1900   -7.2110 C.2    47  GLN47       0.2608
     43  OE1      106.7430   93.6910   -6.2520 O.2    47  GLN47      -0.2717
     44  NE2      108.4800   94.8370   -7.0890 N.am   47  GLN47      -0.0878
     45  N        104.8750   95.0570  -10.7600 N.am   48  ARG48      -0.1963
     46  CA       104.1360   96.3100  -10.8830 C.3    48  ARG48       0.1729
     47  C        103.1480   96.2880  -12.0490 C.2    48  ARG48       0.2616
     48  O        102.3010   97.1780  -12.1730 O.2    48  ARG48      -0.2715
     49  CB       105.1070   97.4830  -11.0540 C.3    48  ARG48       0.0348
     50  CG       106.0420   97.7030   -9.8680 C.3    48  ARG48       0.0492
     51  CD       107.0600   98.8000  -10.1600 C.3    48  ARG48       0.2205
     52  NE       108.1620   98.8170   -9.1980 N.pl3  48  ARG48      -0.0865
     53  CZ       108.1100   99.3790   -7.9940 C.cat  48  ARG48       0.5346
     54  NH1      107.0030   99.9860   -7.5830 N.pl3  48  ARG48       0.1354
     55  NH2      109.1720   99.3360   -7.1990 N.pl3  48  ARG48       0.1354
     56  N        103.2530   95.2660  -12.8940 N.am   49  GLN49      -0.1977
     57  CA       102.3740   95.1390  -14.0530 C.3    49  GLN49       0.1601
     58  C        101.9080   93.6950  -14.2630 C.2    49  GLN49       0.2287
     59  O        102.1330   93.1060  -15.3220 O.2    49  GLN49      -0.2864
     60  CB       103.1060   95.6490  -15.2980 C.3    49  GLN49       0.0394
     61  CG       103.3870   97.1470  -15.2740 C.3    49  GLN49       0.0908
     62  CD       104.4700   97.5500  -16.2550 C.2    49  GLN49       0.2608
     63  OE1      104.4380   97.1600  -17.4200 O.2    49  GLN49      -0.2717
     64  NE2      105.4310   98.3410  -15.7900 N.am   49  GLN49      -0.0878
     65  N        119.9000  103.2430   -8.4030 N.3   148  ILE148     -0.1245
     66  CA       119.2200  102.2070   -9.1560 C.3   148  ILE148      0.1561
     67  C        119.2890  102.6340  -10.6120 C.2   148  ILE148      0.2260
     68  O        118.8750  103.7380  -10.9620 O.2   148  ILE148     -0.2867
     69  CB       117.7440  102.0670   -8.7700 C.3   148  ILE148      0.0252
     70  CG1      117.6080  101.8020   -7.2680 C.3   148  ILE148      0.0019
     71  CG2      117.1300  100.9200   -9.5630 C.3   148  ILE148      0.0019
     72  CD1      118.3880  100.5930   -6.7810 C.3   148  ILE148      0.0001
     73  N        119.0740  101.6320  -15.0510 N.3   150  ASN150     -0.1240
     74  CA       118.4110  100.8980  -16.1230 C.3   150  ASN150      0.1653
     75  C        119.3910  100.9560  -17.2830 C.2   150  ASN150      0.2266
     76  O        119.3670  101.8940  -18.0850 O.2   150  ASN150     -0.2867
     77  CB       117.1030  101.5910  -16.5190 C.3   150  ASN150      0.1155
     78  CG       116.2500  100.7430  -17.4470 C.2   150  ASN150      0.2627
     79  OD1      115.2310  101.2000  -17.9690 O.2   150  ASN150     -0.2716
     80  ND2      116.6580   99.5040  -17.6510 N.am  150  ASN150     -0.0877
     81  N        118.5310  106.5370  -16.4760 N.3   154  GLN154     -0.1245
     82  CA       117.3550  106.7500  -15.6310 C.3   154  GLN154      0.1566
     83  C        117.6640  106.5170  -14.1560 C.2   154  GLN154      0.2260
     84  O        116.8870  105.8890  -13.4370 O.2   154  GLN154     -0.2867
     85  CB       116.2370  105.8070  -16.0770 C.3   154  GLN154      0.0367
     86  CG       115.7260  106.0700  -17.4850 C.3   154  GLN154      0.0905
     87  CD       114.9490  104.8950  -18.0520 C.2   154  GLN154      0.2608
     88  OE1      114.1450  104.2660  -17.3580 O.2   154  GLN154     -0.2717
     89  NE2      115.1820  104.5950  -19.3260 N.am  154  GLN154     -0.0878
     90  N        118.0680  106.4770  -10.2720 N.3   156  LEU156     -0.1245
     91  CA       117.2470  106.8100   -9.1190 C.3   156  LEU156      0.1561
     92  C        118.1800  106.6810   -7.9090 C.2   156  LEU156      0.2260
     93  O        118.8440  105.6580   -7.7340 O.2   156  LEU156     -0.2867
     94  CB       116.0630  105.8430   -8.9770 C.3   156  LEU156      0.0270
     95  CG       114.8670  105.9720   -9.9270 C.3   156  LEU156      0.0019
     96  CD1      113.8200  104.9270   -9.5580 C.3   156  LEU156      0.0001
     97  CD2      114.2600  107.3780   -9.8310 C.3   156  LEU156      0.0001
     98  N        113.1240  107.0900   -3.5100 N.3   182  TYR182     -0.1241
     99  CA       113.9950  106.9840   -4.6720 C.3   182  TYR182      0.1605
    100  C        113.6690  108.1450   -5.5890 C.2   182  TYR182      0.2264
    101  O        112.5330  108.2800   -6.0420 O.2   182  TYR182     -0.2867
    102  CB       113.7640  105.6720   -5.4290 C.3   182  TYR182      0.0534
    103  CG       114.2810  104.4450   -4.7230 C.ar  182  TYR182     -0.0201
    104  CD1      113.4330  103.6340   -3.9630 C.ar  182  TYR182     -0.0009
    105  CD2      115.6270  104.0930   -4.8100 C.ar  182  TYR182     -0.0009
    106  CE1      113.9200  102.4910   -3.3040 C.ar  182  TYR182      0.0417
    107  CE2      116.1260  102.9570   -4.1540 C.ar  182  TYR182      0.0417
    108  CZ       115.2700  102.1670   -3.4080 C.ar  182  TYR182      0.1957
    109  OH       115.7770  101.0700   -2.7560 O.3   182  TYR182     -0.2866
    110  N        119.1000   97.1460  -13.3480 N.3   203  ARG203     -0.1245
    111  CA       118.0780   96.1880  -13.7480 C.3   203  ARG203      0.1563
    112  C        118.4890   95.3220  -14.9410 C.2   203  ARG203      0.2260
    113  O        118.1020   94.1610  -15.0220 O.2   203  ARG203     -0.2867
    114  CB       116.7910   96.9310  -14.1070 C.3   203  ARG203      0.0307
    115  CG       116.1030   97.6120  -12.9410 C.3   203  ARG203      0.0489
    116  CD       115.1460   98.6800  -13.4430 C.3   203  ARG203      0.2205
    117  NE       114.4110   98.2360  -14.6260 N.pl3 203  ARG203     -0.0865
    118  CZ       113.5880   99.0080  -15.3320 C.cat 203  ARG203      0.5346
    119  NH1      113.3850  100.2730  -14.9810 N.pl3 203  ARG203      0.1354
    120  NH2      112.9710   98.5150  -16.3970 N.pl3 203  ARG203      0.1354
    121  N        120.3310   93.7150   -8.0160 N.3   237  PRO237     -0.2102
    122  CA       119.0960   94.4940   -7.8420 C.3   237  PRO237      0.1504
    123  C        117.9340   93.7880   -7.1370 C.2   237  PRO237      0.2576
    124  O        117.1350   94.4490   -6.4650 O.2   237  PRO237     -0.2718
    125  CB       118.7420   94.9130   -9.2720 C.3   237  PRO237      0.0282
    126  CG       119.2880   93.7800  -10.0950 C.3   237  PRO237      0.0208
    127  CD       120.6370   93.5190   -9.4440 C.3   237  PRO237      0.0893
    128  N        117.8370   92.4630   -7.2830 N.am  238  THR238     -0.1953
    129  CA       116.7480   91.7140   -6.6510 C.3   238  THR238      0.1897
    130  C        116.8230   91.7970   -5.1230 C.2   238  THR238      0.2313
    131  O        115.8400   91.5370   -4.4240 O.2   238  THR238     -0.2863
    132  CB       116.7320   90.2240   -7.0980 C.3   238  THR238      0.1794
    133  OG1      117.9960   89.6100   -6.8140 O.3   238  THR238     -0.2208
    134  CG2      116.4680   90.1260   -8.5880 C.3   238  THR238      0.0378
    135  N        116.8130   94.3300   -3.5100 N.3   240  LEU240     -0.1231
    136  CA       116.0290   95.5060   -3.1190 C.3   240  LEU240      0.1693
    137  C        114.5330   95.4720   -3.4730 C.2   240  LEU240      0.2591
    138  O        113.8230   96.4630   -3.2970 O.2   240  LEU240     -0.2718
    139  CB       116.6610   96.7550   -3.7460 C.3   240  LEU240      0.0284
    140  CG       118.1560   96.9590   -3.4840 C.3   240  LEU240      0.0019
    141  CD1      118.6660   98.1610   -4.2770 C.3   240  LEU240      0.0001
    142  CD2      118.3920   97.1570   -1.9930 C.3   240  LEU240      0.0001
    143  N        114.0510   94.3430   -3.9710 N.am  241  VAL241     -0.1980
    144  CA       112.6430   94.2290   -4.3400 C.3   241  VAL241      0.1595
    145  C        111.8540   93.3570   -3.3650 C.2   241  VAL241      0.2287
    146  O        112.3600   92.3480   -2.8710 O.2   241  VAL241     -0.2864
    147  CB       112.4880   93.6230   -5.7520 C.3   241  VAL241      0.0276
    148  CG1      111.0230   93.6400   -6.1610 C.3   241  VAL241      0.0022
    149  CG2      113.3390   94.3950   -6.7510 C.3   241  VAL241      0.0022
@<TRIPOS>BOND
     1    89    87   am
     2    76    75    2
     3    87    86    1
     4    87    88    2
     5    79    78    2
     6    80    78   am
     7    86    85    1
     8    78    77    1
     9    63    62    2
    10    75    74    1
    11    77    74    1
    12    81    82    1
    13   120   118    1
    14    62    64   am
    15    62    61    1
    16    74    73    1
    17    85    82    1
    18    82    83    1
    19     7     5    1
    20   118   119    1
    21   118   117    2
    22    59    58    2
    23    60    61    1
    24    60    57    1
    25   113   112    2
    26   112   111    1
    27   117   116    1
    28    24    25    1
    29    28    25    1
    30    28    29    1
    31    58    57    1
    32     5     6    1
    33     5     2    1
    34    83    84    2
    35   114   111    1
    36   114   115    1
    37    57    56    1
    38   111   110    1
    39    25    26    1
    40   116   115    1
    41    29    31   ar
    42    29    30   ar
    43    31    33   ar
    44     2     1    1
    45     2     3    1
    46    56    47   am
    47    27    26    2
    48    30    32   ar
    49    26    36   am
    50    33    34   ar
    51     4     3    2
    52    48    47    2
    53    23    21   am
    54    47    46    1
    55     3     8   am
    56    22    21    2
    57    21    20    1
    58    32    34   ar
    59    34    35    1
    60    20    19    1
    61    36    37    1
    62    49    46    1
    63    49    50    1
    64    68    67    2
    65     8     9    1
    66    46    45    1
    67    45    38   am
    68    67    66    1
    69    90    91    1
    70    38    37    1
    71    38    39    2
    72    19    16    1
    73    51    50    1
    74    51    52    1
    75    37    40    1
    76   126   127    1
    77   126   125    1
    78     9    12    1
    79     9    10    1
    80    95    97    1
    81    95    96    1
    82    95    94    1
    83    14    12    1
    84    71    69    1
    85   127   121    1
    86    16    15    1
    87    16    17    1
    88   125   122    1
    89    52    53    2
    90    66    69    1
    91    66    65    1
    92    91    94    1
    93    91    92    1
    94    12    13    1
    95    10    11    2
    96    18    17    2
    97    40    41    1
    98    69    70    1
    99    41    42    1
   100   134   132    1
   101   121   122    1
   102    53    54    1
   103    53    55    1
   104    92    93    2
   105   122   123    1
   106   128   123   am
   107   128   129    1
   108    70    72    1
   109    42    44   am
   110    42    43    2
   111   123   124    2
   112   132   133    1
   113   132   129    1
   114   149   147    1
   115   129   130    1
   116   148   147    1
   117   101   100    2
   118   147   144    1
   119   100    99    1
   120   102   103    1
   121   102    99    1
   122   130   131    2
   123   105   103   ar
   124   105   107   ar
   125   103   104   ar
   126    99    98    1
   127   144   143    1
   128   144   145    1
   129   141   140    1
   130   107   108   ar
   131   143   137   am
   132   104   106   ar
   133   139   140    1
   134   139   136    1
   135   135   136    1
   136   140   142    1
   137   137   138    2
   138   137   136    1
   139   108   106   ar
   140   108   109    1
   141   145   146    2
