@<TRIPOS>MOLECULE
tmp/2r7aA00.pdb
 183 178 0 0 0
SMALL
GASTEIGER

@<TRIPOS>ATOM
      1  N         11.9770   11.9820  -32.4230 N.3     8  GLY8       -0.1210
      2  CA        12.8850   11.8990  -31.2890 C.3     8  GLY8        0.1956
      3  C         12.1680   12.5160  -30.1030 C.2     8  GLY8        0.2612
      4  O         12.0340   13.7330  -30.0230 O.2     8  GLY8       -0.2717
      5  N         11.7000   11.6640  -29.1950 N.am    9  GLY9       -0.1942
      6  CA        10.9570   12.1030  -28.0290 C.3     9  GLY9        0.2014
      7  C         11.4400   13.3410  -27.3050 C.2     9  GLY9        0.2639
      8  O         10.6810   14.2930  -27.1260 O.2     9  GLY9       -0.2714
      9  N         12.6940   13.3220  -26.8700 N.am   10  SER10      -0.1949
     10  CA        13.2690   14.4410  -26.1440 C.3    10  SER10       0.1924
     11  C         13.4150   15.6770  -27.0300 C.2    10  SER10       0.2314
     12  O         13.4300   16.8060  -26.5330 O.2    10  SER10      -0.2863
     13  CB        14.6200   14.0290  -25.5370 C.3    10  SER10       0.2116
     14  OG        15.4700   13.4780  -26.5210 O.3    10  SER10      -0.2180
     15  N          7.0180    7.7370  -32.6560 N.3    29  GLU29      -0.1231
     16  CA         6.5440    6.7520  -31.6900 C.3    29  GLU29       0.1699
     17  C          7.1090    6.9630  -30.2680 C.2    29  GLU29       0.2592
     18  O          6.4380    6.6600  -29.2800 O.2    29  GLU29      -0.2718
     19  CB         6.9160    5.3670  -32.2320 C.3    29  GLU29       0.0402
     20  CG         6.4150    4.1650  -31.4670 C.3    29  GLU29       0.1161
     21  CD         6.7980    2.8610  -32.1720 C.2    29  GLU29       0.3649
     22  OE1        6.2000    2.5560  -33.2280 O.co2  29  GLU29      -0.2457
     23  OE2        7.7090    2.1530  -31.6830 O.co2  29  GLU29      -0.2457
     24  N          8.3330    7.4780  -30.1630 N.am   30  THR30      -0.1953
     25  CA         8.9400    7.6960  -28.8460 C.3    30  THR30       0.1897
     26  C          8.4420    8.9680  -28.1750 C.2    30  THR30       0.2313
     27  O          8.8060    9.2540  -27.0350 O.2    30  THR30      -0.2863
     28  CB        10.4950    7.7670  -28.9160 C.3    30  THR30       0.1794
     29  OG1       10.9060    8.9150  -29.6770 O.3    30  THR30      -0.2208
     30  CG2       11.0550    6.5110  -29.5600 C.3    30  THR30       0.0378
     31  N          9.0520    4.5080  -35.3710 N.3    45  TYR45      -0.1227
     32  CA        10.1730    4.7270  -34.4670 C.3    45  TYR45       0.1736
     33  C         11.1550    5.5780  -35.2640 C.2    45  TYR45       0.2595
     34  O         11.2040    5.4550  -36.4890 O.2    45  TYR45      -0.2718
     35  CB        10.8070    3.3760  -34.1340 C.3    45  TYR45       0.0548
     36  CG        11.7500    3.3840  -32.9610 C.ar   45  TYR45      -0.0200
     37  CD1       11.3150    3.7960  -31.7020 C.ar   45  TYR45      -0.0009
     38  CD2       13.0710    2.9510  -33.0960 C.ar   45  TYR45      -0.0009
     39  CE1       12.1680    3.7780  -30.6070 C.ar   45  TYR45       0.0417
     40  CE2       13.9340    2.9290  -31.9950 C.ar   45  TYR45       0.0417
     41  CZ        13.4720    3.3480  -30.7550 C.ar   45  TYR45       0.1957
     42  OH        14.3140    3.3620  -29.6660 O.3    45  TYR45      -0.2866
     43  N         11.9430    6.4260  -34.6020 N.am   46  TRP46      -0.1976
     44  CA        12.8650    7.2630  -35.3620 C.3    46  TRP46       0.1640
     45  C         13.8820    6.4800  -36.2010 C.2    46  TRP46       0.2290
     46  O         14.5410    7.0480  -37.0720 O.2    46  TRP46      -0.2864
     47  CB        13.5860    8.2800  -34.4660 C.3    46  TRP46       0.0576
     48  CG        14.2100    7.7400  -33.2290 C.ar   46  TRP46       0.0006
     49  CD1       13.5830    7.4700  -32.0500 C.ar   46  TRP46       0.0946
     50  CD2       15.5890    7.4060  -33.0370 C.ar   46  TRP46       0.0152
     51  NE1       14.4820    6.9880  -31.1350 N.ar   46  TRP46      -0.2442
     52  CE2       15.7220    6.9400  -31.7120 C.ar   46  TRP46       0.0810
     53  CE3       16.7240    7.4540  -33.8560 C.ar   46  TRP46       0.0012
     54  CZ2       16.9480    6.5240  -31.1810 C.ar   46  TRP46       0.0191
     55  CZ3       17.9410    7.0400  -33.3290 C.ar   46  TRP46       0.0001
     56  CH2       18.0420    6.5810  -32.0030 C.ar   46  TRP46       0.0015
     57  N         17.3220   12.7710  -35.0900 N.3    65  TRP65      -0.1241
     58  CA        18.6880   12.3820  -34.7530 C.3    65  TRP65       0.1605
     59  C         19.4970   11.9750  -35.9730 C.2    65  TRP65       0.2264
     60  O         18.9400   11.5670  -36.9870 O.2    65  TRP65      -0.2867
     61  CB        18.6560   11.2080  -33.7740 C.3    65  TRP65       0.0550
     62  CG        17.9890   11.5160  -32.4760 C.ar   65  TRP65       0.0003
     63  CD1       16.9350   10.8520  -31.9170 C.ar   65  TRP65       0.0946
     64  CD2       18.3620   12.5380  -31.5440 C.ar   65  TRP65       0.0152
     65  NE1       16.6300   11.3950  -30.6890 N.ar   65  TRP65      -0.2442
     66  CE2       17.4920   12.4300  -30.4340 C.ar   65  TRP65       0.0810
     67  CE3       19.3510   13.5340  -31.5370 C.ar   65  TRP65       0.0012
     68  CZ2       17.5810   13.2810  -29.3250 C.ar   65  TRP65       0.0191
     69  CZ3       19.4400   14.3800  -30.4360 C.ar   65  TRP65       0.0001
     70  CH2       18.5580   14.2460  -29.3450 C.ar   65  TRP65       0.0015
     71  N         23.1620   12.5510  -31.3590 N.3    89  ARG89      -0.1231
     72  CA        22.4910   12.0190  -30.1790 C.3    89  ARG89       0.1694
     73  C         23.4420   11.4070  -29.1610 C.2    89  ARG89       0.2591
     74  O         23.3010   11.6200  -27.9510 O.2    89  ARG89      -0.2718
     75  CB        21.4580   10.9670  -30.5910 C.3    89  ARG89       0.0321
     76  CG        20.5010   10.5870  -29.4770 C.3    89  ARG89       0.0489
     77  CD        19.5110    9.5330  -29.9430 C.3    89  ARG89       0.2205
     78  NE        20.0830    8.1930  -29.8810 N.pl3  89  ARG89      -0.0865
     79  CZ        20.1910    7.4800  -28.7630 C.cat  89  ARG89       0.5346
     80  NH1       19.7580    7.9790  -27.6070 N.pl3  89  ARG89       0.1354
     81  NH2       20.7350    6.2690  -28.7980 N.pl3  89  ARG89       0.1354
     82  N         24.4060   10.6350  -29.6480 N.am   90  VAL90      -0.1980
     83  CA        25.3630    9.9880  -28.7610 C.3    90  VAL90       0.1595
     84  C         26.7970   10.2300  -29.2080 C.2    90  VAL90       0.2287
     85  O         27.0470   10.5310  -30.3730 O.2    90  VAL90      -0.2864
     86  CB        25.1360    8.4630  -28.7030 C.3    90  VAL90       0.0276
     87  CG1       23.7890    8.1530  -28.0620 C.3    90  VAL90       0.0022
     88  CG2       25.2290    7.8790  -30.1060 C.3    90  VAL90       0.0022
     89  N         17.3510   -2.0990  -19.0130 N.3   145  LEU145     -0.1245
     90  CA        16.2340   -1.7350  -19.8780 C.3   145  LEU145      0.1561
     91  C         15.7320   -2.8620  -20.7870 C.2   145  LEU145      0.2260
     92  O         16.5200   -3.6330  -21.3290 O.2   145  LEU145     -0.2867
     93  CB        16.6540   -0.5560  -20.7670 C.3   145  LEU145      0.0270
     94  CG        15.6730   -0.1070  -21.8510 C.3   145  LEU145      0.0019
     95  CD1       14.5320    0.7030  -21.2180 C.3   145  LEU145      0.0001
     96  CD2       16.4120    0.7340  -22.8770 C.3   145  LEU145      0.0001
     97  N         13.6210   -2.2280  -23.5840 N.3   147  ALA147     -0.1231
     98  CA        12.9350   -1.3600  -24.5340 C.3   147  ALA147      0.1694
     99  C         12.3570   -2.0850  -25.7370 C.2   147  ALA147      0.2593
    100  O         13.0910   -2.6480  -26.5540 O.2   147  ALA147     -0.2718
    101  CB        13.8730   -0.2580  -25.0030 C.3   147  ALA147      0.0304
    102  N         11.0310   -2.0530  -25.8390 N.am  148  GLY148     -0.1942
    103  CA        10.3490   -2.6900  -26.9510 C.3   148  GLY148      0.2014
    104  C         10.2090   -4.1880  -26.8100 C.2   148  GLY148      0.2639
    105  O          9.6830   -4.6810  -25.8110 O.2   148  GLY148     -0.2714
    106  N         10.6830   -4.9140  -27.8180 N.am  149  GLY149     -0.1939
    107  CA        10.5990   -6.3600  -27.7940 C.3   149  GLY149      0.2014
    108  C         11.9400   -7.0390  -27.5880 C.2   149  GLY149      0.2639
    109  O         12.0960   -8.2220  -27.8950 O.2   149  GLY149     -0.2714
    110  N         12.9040   -6.3000  -27.0530 N.am  150  SER150     -0.1949
    111  CA        14.2410   -6.8340  -26.8180 C.3   150  SER150      0.1924
    112  C         14.3900   -7.5040  -25.4600 C.2   150  SER150      0.2314
    113  O         13.5570   -7.3400  -24.5670 O.2   150  SER150     -0.2863
    114  CB        15.2810   -5.7180  -26.9130 C.3   150  SER150      0.2116
    115  OG        15.2440   -4.9090  -25.7460 O.3   150  SER150     -0.2180
    116  N         25.4700    5.9070  -23.2550 N.3   159  SER159     -0.1202
    117  CA        24.0120    5.9020  -23.2410 C.3   159  SER159      0.2020
    118  C         23.4460    7.0820  -22.4370 C.2   159  SER159      0.2619
    119  O         24.1270    7.6550  -21.5940 O.2   159  SER159     -0.2717
    120  CB        23.4930    4.5820  -22.6510 C.3   159  SER159      0.2103
    121  OG        23.8380    4.4290  -21.2750 O.3   159  SER159     -0.2182
    122  N         22.1980    7.4420  -22.7010 N.am  160  VAL160     -0.1965
    123  CA        21.5670    8.5220  -21.9550 C.3   160  VAL160      0.1727
    124  C         21.4170    8.0740  -20.5010 C.2   160  VAL160      0.2616
    125  O         21.6810    8.8390  -19.5620 O.2   160  VAL160     -0.2715
    126  CB        20.1790    8.8640  -22.5430 C.3   160  VAL160      0.0290
    127  CG1       19.4680    9.8600  -21.6480 C.3   160  VAL160      0.0023
    128  CG2       20.3400    9.4490  -23.9530 C.3   160  VAL160      0.0023
    129  N         21.0070    6.8230  -20.3150 N.am  161  ALA161     -0.1977
    130  CA        20.8350    6.2690  -18.9760 C.3   161  ALA161      0.1597
    131  C         22.0910    6.4900  -18.1430 C.2   161  ALA161      0.2287
    132  O         22.0210    6.9530  -16.9970 O.2   161  ALA161     -0.2864
    133  CB        20.5170    4.7820  -19.0590 C.3   161  ALA161      0.0319
    134  N         27.4340    1.4350  -24.7650 N.3   178  GLN178     -0.1231
    135  CA        25.9870    1.4620  -24.9720 C.3   178  GLN178      0.1698
    136  C         25.2260    0.3150  -24.2860 C.2   178  GLN178      0.2592
    137  O         25.4170    0.0980  -23.1020 O.2   178  GLN178     -0.2718
    138  CB        25.6880    1.4910  -26.4770 C.3   178  GLN178      0.0381
    139  CG        26.1610    2.7670  -27.1860 C.3   178  GLN178      0.0905
    140  CD        25.4500    4.0020  -26.6520 C.2   178  GLN178      0.2608
    141  OE1       24.3600    3.8990  -26.0910 O.2   178  GLN178     -0.2717
    142  NE2       26.0580    5.1710  -26.8280 N.am  178  GLN178     -0.0878
    143  N         24.3810   -0.4170  -25.0140 N.am  179  TYR179     -0.1976
    144  CA        23.5900   -1.4990  -24.4080 C.3   179  TYR179      0.1639
    145  C         23.9700   -2.9230  -24.7900 C.2   179  TYR179      0.2290
    146  O         24.1930   -3.2170  -25.9590 O.2   179  TYR179     -0.2864
    147  CB        22.0920   -1.3270  -24.7150 C.3   179  TYR179      0.0560
    148  CG        21.4060   -0.2520  -23.9000 C.ar  179  TYR179     -0.0198
    149  CD1       21.4860    1.0870  -24.2710 C.ar  179  TYR179     -0.0009
    150  CD2       20.7090   -0.5740  -22.7330 C.ar  179  TYR179     -0.0009
    151  CE1       20.8870    2.0880  -23.5000 C.ar  179  TYR179      0.0417
    152  CE2       20.1100    0.4150  -21.9540 C.ar  179  TYR179      0.0417
    153  CZ        20.2050    1.7430  -22.3450 C.ar  179  TYR179      0.1957
    154  OH        19.6280    2.7270  -21.5770 O.3   179  TYR179     -0.2866
    155  N         10.4490    5.1720  -18.3740 N.3   231  GLN231     -0.1231
    156  CA        11.3750    4.9910  -19.4910 C.3   231  GLN231      0.1698
    157  C         11.5720    6.2190  -20.3770 C.2   231  GLN231      0.2592
    158  O         12.6600    6.4290  -20.9130 O.2   231  GLN231     -0.2718
    159  CB        10.9350    3.8110  -20.3660 C.3   231  GLN231      0.0381
    160  CG         9.8580    4.1530  -21.3800 C.3   231  GLN231      0.0905
    161  CD         9.5680    3.0070  -22.3330 C.2   231  GLN231      0.2608
    162  OE1       10.4800    2.4550  -22.9540 O.2   231  GLN231     -0.2717
    163  NE2        8.2930    2.6480  -22.4590 N.am  231  GLN231     -0.0878
    164  N         10.5280    7.0290  -20.5360 N.am  232  ASN232     -0.1974
    165  CA        10.6280    8.2180  -21.3790 C.3   232  ASN232      0.1688
    166  C         11.5750    9.2410  -20.7750 C.2   232  ASN232      0.2292
    167  O         12.1450   10.0820  -21.4830 O.2   232  ASN232     -0.2864
    168  CB         9.2510    8.8530  -21.5740 C.3   232  ASN232      0.1181
    169  CG         8.2240    7.8660  -22.0850 C.2   232  ASN232      0.2629
    170  OD1        7.6850    7.0590  -21.3250 O.2   232  ASN232     -0.2716
    171  ND2        7.9540    7.9160  -23.3820 N.am  232  ASN232     -0.0877
    172  N         15.5940    7.6360  -21.3260 N.3   235  LEU235     -0.1231
    173  CA        16.1370    7.3150  -22.6430 C.3   235  LEU235      0.1693
    174  C         16.4760    8.5130  -23.5270 C.2   235  LEU235      0.2592
    175  O         17.0550    8.3510  -24.6020 O.2   235  LEU235     -0.2718
    176  CB        15.1770    6.3850  -23.3850 C.3   235  LEU235      0.0284
    177  CG        14.8850    5.0660  -22.6630 C.3   235  LEU235      0.0019
    178  CD1       14.0120    4.2000  -23.5570 C.3   235  LEU235      0.0001
    179  CD2       16.1940    4.3400  -22.3120 C.3   235  LEU235      0.0001
    180  N         16.1160    9.7090  -23.0700 N.am  236  GLY236     -0.1957
    181  CA        16.4040   10.9190  -23.8230 C.3   236  GLY236      0.1869
    182  C         16.7590   12.0530  -22.8730 C.2   236  GLY236      0.2309
    183  O         16.3960   12.0120  -21.7020 O.2   236  GLY236     -0.2863
@<TRIPOS>BOND
     1    46    45    2
     2    60    59    2
     3    34    33    2
     4    45    44    1
     5    59    58    1
     6    31    32    1
     7    44    43    1
     8    44    47    1
     9    33    43   am
    10    33    32    1
    11    57    58    1
    12    58    61    1
    13    32    35    1
    14    47    48    1
    15    35    36    1
    16    53    55   ar
    17    53    50   ar
    18    61    62    1
    19    55    56   ar
    20    48    50   ar
    21    48    49   ar
    22    22    21   ar
    23    38    36   ar
    24    38    40   ar
    25    50    52   ar
    26    36    37   ar
    27    15    16    1
    28    62    63   ar
    29    62    64   ar
    30     1     2    1
    31    19    16    1
    32    19    20    1
    33    21    23   ar
    34    21    20    1
    35    49    51   ar
    36    56    54   ar
    37    40    41   ar
    38    63    65   ar
    39    52    54   ar
    40    52    51   ar
    41    37    39   ar
    42    16    17    1
    43    64    67   ar
    44    64    66   ar
    45    67    69   ar
    46    71    72    1
    47     2     3    1
    48    41    39   ar
    49    41    42    1
    50    65    66   ar
    51    75    72    1
    52    75    76    1
    53    69    70   ar
    54    66    68   ar
    55    85    84    2
    56    17    24   am
    57    17    18    2
    58    72    73    1
    59    24    25    1
    60    88    86    1
    61     3     4    2
    62     3     5   am
    63    77    78    1
    64    77    76    1
    65    78    79    2
    66    29    28    1
    67    82    73   am
    68    82    83    1
    69    30    28    1
    70    70    68   ar
    71    84    83    1
    72     5     6    1
    73    73    74    2
    74    28    25    1
    75    25    26    1
    76    81    79    1
    77    79    80    1
    78    83    86    1
    79    86    87    1
    80    26    27    2
    81     6     7    1
    82   109   108    2
    83   106   107    1
    84   106   104   am
    85   107   108    1
    86   108   110   am
    87     7     8    2
    88     7     9   am
    89   139   140    1
    90   139   138    1
    91   110   111    1
    92    11    12    2
    93    11    10    1
    94   103   104    1
    95   103   102    1
    96   114   111    1
    97   114   115    1
    98     9    10    1
    99   142   140   am
   100   111   112    1
   101   104   105    2
   102   140   141    2
   103   100    99    2
   104    14    13    1
   105   138   135    1
   106    10    13    1
   107   146   145    2
   108   102    99   am
   109    99    98    1
   110   112   113    2
   111   143   144    1
   112   143   136   am
   113   101    98    1
   114   135   134    1
   115   135   136    1
   116   145   144    1
   117   147   144    1
   118   147   148    1
   119   175   174    2
   120    98    97    1
   121   136   137    2
   122   149   148   ar
   123   149   151   ar
   124   128   126    1
   125   148   150   ar
   126   181   180    1
   127   181   182    1
   128   178   177    1
   129   174   180   am
   130   174   173    1
   131   151   153   ar
   132   176   177    1
   133   176   173    1
   134   171   169   am
   135   116   117    1
   136   117   120    1
   137   117   118    1
   138   162   161    2
   139    96    94    1
   140   182   183    2
   141   150   152   ar
   142   122   118   am
   143   122   123    1
   144   177   179    1
   145   120   121    1
   146   173   172    1
   147   126   123    1
   148   126   127    1
   149   163   161   am
   150   118   119    2
   151   153   152   ar
   152   153   154    1
   153   161   160    1
   154   169   168    1
   155   169   170    2
   156   123   124    1
   157    94    95    1
   158    94    93    1
   159   168   165    1
   160   167   166    2
   161   160   159    1
   162   165   166    1
   163   165   164    1
   164    92    91    2
   165   158   157    2
   166    91    90    1
   167    93    90    1
   168   164   157   am
   169   124   129   am
   170   124   125    2
   171   157   156    1
   172   159   156    1
   173   129   130    1
   174    90    89    1
   175   156   155    1
   176   133   130    1
   177   130   131    1
   178   131   132    2
