@<TRIPOS>MOLECULE
tmp/2r7bA01.pdb
 157 145 0 0 0
SMALL
GASTEIGER

@<TRIPOS>ATOM
      1  N         85.1060   13.8400   24.2170 N.3    12  LYS12      -0.1245
      2  CA        85.4610   15.1500   23.7640 C.3    12  LYS12       0.1561
      3  C         84.5880   15.8640   22.7380 C.2    12  LYS12       0.2260
      4  O         84.0130   15.2430   21.8510 O.2    12  LYS12      -0.2867
      5  CB        86.8550   14.9560   23.2520 C.3    12  LYS12       0.0271
      6  CG        87.4200   15.9470   22.3470 C.3    12  LYS12       0.0035
      7  CD        88.7110   15.3630   21.8070 C.3    12  LYS12       0.0206
      8  CE        89.3590   16.3210   20.8420 C.3    12  LYS12       0.1093
      9  NZ        90.8300   16.3340   21.0400 N.3    12  LYS12      -0.1314
     10  N         83.9100   17.4020   19.4680 N.3    14  LEU14      -0.1231
     11  CA        84.5550   17.3770   18.1590 C.3    14  LEU14       0.1693
     12  C         84.1140   18.5810   17.3320 C.2    14  LEU14       0.2593
     13  O         84.8250   19.0290   16.4370 O.2    14  LEU14      -0.2718
     14  CB        84.1910   16.1230   17.3570 C.3    14  LEU14       0.0284
     15  CG        84.4920   14.7300   17.8950 C.3    14  LEU14       0.0019
     16  CD1       83.8870   13.6910   16.9450 C.3    14  LEU14       0.0001
     17  CD2       85.9870   14.5380   18.0250 C.3    14  LEU14       0.0001
     18  N         82.9330   19.0970   17.6370 N.am   15  GLY15      -0.1942
     19  CA        82.4090   20.2330   16.9040 C.3    15  GLY15       0.2014
     20  C         81.2560   20.8610   17.6530 C.2    15  GLY15       0.2638
     21  O         80.4340   20.1660   18.2640 O.2    15  GLY15      -0.2714
     22  N         81.1810   22.1830   17.6030 N.am   16  GLU16      -0.1977
     23  CA        80.1290   22.8910   18.3150 C.3    16  GLU16       0.1602
     24  C         79.4160   23.8550   17.3840 C.2    16  GLU16       0.2287
     25  O         79.8920   24.9570   17.1200 O.2    16  GLU16      -0.2864
     26  CB        80.7000   23.6680   19.5030 C.3    16  GLU16       0.0415
     27  CG        79.8820   23.5600   20.7690 C.3    16  GLU16       0.1163
     28  CD        80.6690   23.9820   21.9990 C.2    16  GLU16       0.3649
     29  OE1       80.0590   24.0560   23.0890 O.co2  16  GLU16      -0.2457
     30  OE2       81.8940   24.2330   21.8770 O.co2  16  GLU16      -0.2457
     31  N         73.4930   22.5180   17.3900 N.3    20  SER20      -0.1217
     32  CA        74.1510   21.2300   17.4720 C.3    20  SER20       0.1889
     33  C         75.5500   21.1270   18.1280 C.2    20  SER20       0.2288
     34  O         76.3520   22.0540   18.0490 O.2    20  SER20      -0.2866
     35  CB        74.2570   20.9050   16.0060 C.3    20  SER20       0.2089
     36  OG        74.9170   19.7260   15.7460 O.3    20  SER20      -0.2183
     37  N         78.7550   18.1350   18.3450 N.3    22  VAL22      -0.1245
     38  CA        79.2630   16.8040   17.9790 C.3    22  VAL22       0.1561
     39  C         80.2820   16.3200   19.0220 C.2    22  VAL22       0.2260
     40  O         81.3090   16.9590   19.2750 O.2    22  VAL22      -0.2867
     41  CB        79.9230   16.8040   16.5720 C.3    22  VAL22       0.0252
     42  CG1       80.3490   15.3860   16.1930 C.3    22  VAL22       0.0019
     43  CG2       78.9390   17.3430   15.5470 C.3    22  VAL22       0.0019
     44  N         81.0860    9.6250   15.8900 N.3    35  ALA35      -0.1245
     45  CA        80.9770   11.0690   16.0560 C.3    35  ALA35       0.1562
     46  C         79.4740   11.1980   16.2770 C.2    35  ALA35       0.2260
     47  O         78.6900   11.0450   15.3360 O.2    35  ALA35      -0.2867
     48  CB        81.3970   11.7890   14.7810 C.3    35  ALA35       0.0290
     49  N         76.3560   13.3250   16.8660 N.3    37  LYS37      -0.1245
     50  CA        75.8190   14.6770   16.7820 C.3    37  LYS37       0.1561
     51  C         74.6040   14.7950   17.7000 C.2    37  LYS37       0.2260
     52  O         73.6020   14.0870   17.5220 O.2    37  LYS37      -0.2867
     53  CB        75.4040   15.0400   15.3600 C.3    37  LYS37       0.0271
     54  CG        74.9590   16.4730   15.2080 C.3    37  LYS37       0.0035
     55  CD        74.8600   16.8510   13.7530 C.3    37  LYS37       0.0206
     56  CE        74.1790   18.1880   13.5920 C.3    37  LYS37       0.1093
     57  NZ        74.0750   18.5750   12.1660 N.3    37  LYS37      -0.1314
     58  N         68.2990   16.8980    7.0150 N.3    56  GLU56      -0.1245
     59  CA        69.6830   16.4860    7.2150 C.3    56  GLU56       0.1567
     60  C         69.7810   14.9890    7.4510 C.2    56  GLU56       0.2260
     61  O         70.6130   14.3100    6.8460 O.2    56  GLU56      -0.2867
     62  CB        70.3440   17.1860    8.4030 C.3    56  GLU56       0.0388
     63  CG        71.7200   16.6140    8.7410 C.3    56  GLU56       0.1160
     64  CD        72.4270   17.3440    9.8790 C.2    56  GLU56       0.3649
     65  OE1       73.5230   16.8950   10.2760 O.co2  56  GLU56      -0.2457
     66  OE2       71.8970   18.3650   10.3710 O.co2  56  GLU56      -0.2457
     67  N         71.4930   12.2640    4.7420 N.3    60  MET60      -0.1245
     68  CA        72.6040   11.4480    5.2160 C.3    60  MET60       0.1570
     69  C         72.2460    9.9820    5.1600 C.2    60  MET60       0.2261
     70  O         73.0580    9.1410    4.7810 O.2    60  MET60      -0.2867
     71  CB        73.0170   11.7840    6.6510 C.3    60  MET60       0.0387
     72  CG        73.6490   13.1530    6.7820 C.3    60  MET60       0.0595
     73  SD        74.7520   13.3060    8.1940 S.3    60  MET60      -0.1393
     74  CE        73.5800   13.5190    9.5270 C.3    60  MET60       0.0692
     75  N         80.3680   10.8220    4.8960 N.3    69  VAL69      -0.1245
     76  CA        80.0770   10.4340    6.2690 C.3    69  VAL69       0.1561
     77  C         78.8600    9.5090    6.2290 C.2    69  VAL69       0.2260
     78  O         77.9970    9.6330    5.3630 O.2    69  VAL69      -0.2867
     79  CB        79.7720   11.6870    7.1550 C.3    69  VAL69       0.0252
     80  CG1       78.5660   12.4440    6.6160 C.3    69  VAL69       0.0019
     81  CG2       79.5190   11.2640    8.5840 C.3    69  VAL69       0.0019
     82  N         77.2730    9.2210   13.8260 N.3    85  LEU85      -0.1231
     83  CA        78.0110    9.4500   12.6210 C.3    85  LEU85       0.1693
     84  C         79.4040    8.8900   12.5770 C.2    85  LEU85       0.2593
     85  O         80.0780    8.6350   13.5740 O.2    85  LEU85      -0.2718
     86  CB        78.1460   10.9500   12.3210 C.3    85  LEU85       0.0284
     87  CG        76.9010   11.8430   12.2520 C.3    85  LEU85       0.0019
     88  CD1       77.2960   13.3340   12.0930 C.3    85  LEU85       0.0001
     89  CD2       76.0530   11.3780   11.0700 C.3    85  LEU85       0.0001
     90  N         79.7820    8.6600   11.3460 N.am   86  SER86      -0.1938
     91  CA        81.1120    8.2910   10.9040 C.3    86  SER86       0.2055
     92  C         82.2440    9.1720   11.5300 C.2    86  SER86       0.2643
     93  O         82.2900   10.3870   11.2950 O.2    86  SER86      -0.2714
     94  CB        81.0230    8.5780    9.4410 C.3    86  SER86       0.2130
     95  OG        82.2290    8.4000    8.8110 O.3    86  SER86      -0.2179
     96  N         83.1750    8.5670   12.2740 N.am   87  TYR87      -0.1959
     97  CA        84.3190    9.2730   12.9220 C.3    87  TYR87       0.1771
     98  C         85.5930    9.4040   12.0440 C.2    87  TYR87       0.2619
     99  O         86.3000    8.4240   11.7740 O.2    87  TYR87      -0.2715
    100  CB        84.7150    8.6010   14.2650 C.3    87  TYR87       0.0574
    101  CG        85.9070    9.2240   14.9780 C.ar   87  TYR87      -0.0198
    102  CD1       85.9030   10.5670   15.3510 C.ar   87  TYR87      -0.0009
    103  CD2       87.0440    8.4650   15.2780 C.ar   87  TYR87      -0.0009
    104  CE1       87.0030   11.1380   16.0020 C.ar   87  TYR87       0.0417
    105  CE2       88.1430    9.0220   15.9260 C.ar   87  TYR87       0.0417
    106  CZ        88.1210   10.3610   16.2850 C.ar   87  TYR87       0.1957
    107  OH        89.2150   10.9350   16.9100 O.3    87  TYR87      -0.2866
    108  N         85.8660   10.6370   11.6110 N.am   88  ALA88      -0.1963
    109  CA        87.0000   10.9680   10.7460 C.3    88  ALA88       0.1728
    110  C         88.2390   11.2800   11.5750 C.2    88  ALA88       0.2616
    111  O         88.4770   12.4170   11.9780 O.2    88  ALA88      -0.2715
    112  CB        86.6350   12.1650    9.8560 C.3    88  ALA88       0.0334
    113  N         89.0430   10.2580   11.8050 N.am   89  LYS89      -0.1977
    114  CA        90.2410   10.3920   12.6090 C.3    89  LYS89       0.1596
    115  C         91.1320   11.6160   12.4220 C.2    89  LYS89       0.2287
    116  O         91.3440   12.3860   13.3590 O.2    89  LYS89      -0.2864
    117  CB        91.1400    9.1830   12.4710 C.3    89  LYS89       0.0298
    118  CG        91.2890    8.4140   13.7560 C.3    89  LYS89       0.0038
    119  CD        92.7280    7.9850   13.9630 C.3    89  LYS89       0.0206
    120  CE        92.9030    7.3790   15.3520 C.3    89  LYS89       0.1093
    121  NZ        94.3260    7.0500   15.6450 N.3    89  LYS89      -0.1314
    122  N         90.8050   14.5850   11.2740 N.3    91  GLY91      -0.1210
    123  CA        90.2410   15.9240   11.1900 C.3    91  GLY91       0.1956
    124  C         89.9580   16.5650    9.8390 C.2    91  GLY91       0.2611
    125  O         89.7960   15.8930    8.8180 O.2    91  GLY91      -0.2717
    126  N         89.9040   17.8900    9.8450 N.am   92  GLU92      -0.1979
    127  CA        89.6050   18.6750    8.6510 C.3    92  GLU92       0.1602
    128  C         90.7260   18.7970    7.6300 C.2    92  GLU92       0.2287
    129  O         91.9120   18.7530    7.9580 O.2    92  GLU92      -0.2864
    130  CB        89.1970   20.0990    9.0110 C.3    92  GLU92       0.0415
    131  CG        88.4930   20.2100   10.3490 C.3    92  GLU92       0.1163
    132  CD        88.0600   21.6230   10.6680 C.2    92  GLU92       0.3649
    133  OE1       88.8670   22.5550   10.4430 O.co2  92  GLU92      -0.2457
    134  OE2       86.9200   21.7990   11.1530 O.co2  92  GLU92      -0.2457
    135  N         86.5610   16.0640    5.7110 N.3   138  LEU138     -0.1245
    136  CA        87.3600   15.4330    6.7460 C.3   138  LEU138      0.1561
    137  C         88.2520   14.3450    6.1840 C.2   138  LEU138      0.2260
    138  O         88.0870   13.8970    5.0490 O.2   138  LEU138     -0.2867
    139  CB        86.4830   14.8150    7.8350 C.3   138  LEU138      0.0270
    140  CG        85.3400   15.7030    8.3310 C.3   138  LEU138      0.0019
    141  CD1       84.4340   14.8830    9.2180 C.3   138  LEU138      0.0001
    142  CD2       85.8890   16.9130    9.0660 C.3   138  LEU138      0.0001
    143  N         81.2670   15.8110    5.1940 N.3   148  THR148     -0.1203
    144  CA        80.2170   15.8050    6.1650 C.3   148  THR148      0.1994
    145  C         79.5240   17.1500    6.1060 C.2   148  THR148      0.2617
    146  O         79.8420   18.0260    5.2980 O.2   148  THR148     -0.2717
    147  CB        80.7900   15.5300    7.5920 C.3   148  THR148      0.1784
    148  OG1       79.7180   15.4210    8.5340 O.3   148  THR148     -0.2211
    149  CG2       81.7350   16.6380    8.0200 C.3   148  THR148      0.0376
    150  N         78.5440   17.2350    6.9810 N.am  149  ASP149     -0.1973
    151  CA        77.7580   18.4160    7.1710 C.3   149  ASP149      0.1709
    152  C         76.6810   18.7080    6.1610 C.2   149  ASP149      0.2293
    153  O         76.8110   19.5440    5.2610 O.2   149  ASP149     -0.2864
    154  CB        78.5780   19.6450    7.3280 C.3   149  ASP149      0.1436
    155  CG        77.9110   20.5870    8.2380 C.2   149  ASP149      0.3671
    156  OD1       76.7170   20.3330    8.4930 O.co2 149  ASP149     -0.2456
    157  OD2       78.5430   21.5510    8.7060 O.co2 149  ASP149     -0.2456
@<TRIPOS>BOND
     1    67    68    1
     2    70    69    2
     3    75    76    1
     4   138   137    2
     5    69    68    1
     6   143   144    1
     7    68    71    1
     8   153   152    2
     9   146   145    2
    10    78    77    2
    11   135   136    1
    12   145   144    1
    13   145   150   am
    14   152   151    1
    15   144   147    1
    16   137   136    1
    17    77    76    1
    18    76    79    1
    19    80    79    1
    20    71    72    1
    21   136   139    1
    22    72    73    1
    23    61    60    2
    24   150   151    1
    25    58    59    1
    26    79    81    1
    27   151   154    1
    28    59    60    1
    29    59    62    1
    30   154   155    1
    31   147   149    1
    32   147   148    1
    33   128   129    2
    34   128   127    1
    35   139   140    1
    36    73    74    1
    37   155   156   ar
    38   155   157   ar
    39   140   142    1
    40   140   141    1
    41    62    63    1
    42   127   130    1
    43   127   126    1
    44    63    64    1
    45    95    94    1
    46   125   124    2
    47   130   131    1
    48    94    91    1
    49   124   126   am
    50   124   123    1
    51   112   109    1
    52    64    65   ar
    53    64    66   ar
    54   131   132    1
    55   133   132   ar
    56   132   134   ar
    57   109   110    1
    58   109   108    1
    59    91    90    1
    60    91    92    1
    61    89    87    1
    62   123   122    1
    63    93    92    2
    64    90    84   am
    65    92    96   am
    66   110   113   am
    67   110   111    2
    68   108    98   am
    69    99    98    2
    70   113   114    1
    71    98    97    1
    72    88    87    1
    73    57    56    1
    74    87    86    1
    75    96    97    1
    76    86    83    1
    77   115   114    1
    78   115   116    2
    79   117   114    1
    80   117   118    1
    81    84    83    1
    82    84    85    2
    83    83    82    1
    84    97   100    1
    85    56    55    1
    86    55    54    1
    87   118   119    1
    88   119   120    1
    89   100   101    1
    90    48    45    1
    91   101   103   ar
    92   101   102   ar
    93    54    53    1
    94   103   105   ar
    95    47    46    2
    96   102   104   ar
    97   120   121    1
    98    53    50    1
    99    43    41    1
   100    36    35    1
   101    44    45    1
   102   105   106   ar
   103   104   106   ar
   104    35    32    1
   105    45    46    1
   106    42    41    1
   107   106   107    1
   108    13    12    2
   109    41    38    1
   110    50    49    1
   111    50    51    1
   112    19    18    1
   113    19    20    1
   114    16    15    1
   115    25    24    2
   116    12    18   am
   117    12    11    1
   118    14    15    1
   119    14    11    1
   120    24    23    1
   121    31    32    1
   122    32    33    1
   123    52    51    2
   124    22    20   am
   125    22    23    1
   126    20    21    2
   127    15    17    1
   128    38    37    1
   129    38    39    1
   130    34    33    2
   131    11    10    1
   132    23    26    1
   133    39    40    2
   134    26    27    1
   135    27    28    1
   136     8     9    1
   137     8     7    1
   138     7     6    1
   139     4     3    2
   140    30    28   ar
   141    28    29   ar
   142     6     5    1
   143     3     2    1
   144     5     2    1
   145     2     1    1
