@<TRIPOS>MOLECULE
tmp/2r7eB00.pdb
 139 131 0 0 0
SMALL
GASTEIGER

@<TRIPOS>ATOM
      1  N         32.0080  -48.8320  -30.1640 N.3    64  LEU64      -0.1245
      2  CA        31.2390  -47.5930  -30.0070 C.3    64  LEU64       0.1561
      3  C         30.8190  -47.5410  -28.5390 C.2    64  LEU64       0.2260
      4  O         30.3160  -46.5320  -28.0450 O.2    64  LEU64      -0.2867
      5  CB        30.0080  -47.5590  -30.9170 C.3    64  LEU64       0.0270
      6  CG        29.4910  -46.1400  -31.2430 C.3    64  LEU64       0.0019
      7  CD1       28.4820  -46.2270  -32.3650 C.3    64  LEU64       0.0001
      8  CD2       28.8560  -45.4680  -30.0390 C.3    64  LEU64       0.0001
      9  N         20.4840  -45.3190  -34.6570 N.3   183  VAL183     -0.1231
     10  CA        21.4860  -44.7530  -35.5640 C.3   183  VAL183      0.1692
     11  C         20.9910  -43.5200  -36.3100 C.2   183  VAL183      0.2593
     12  O         21.7870  -42.7930  -36.8990 O.2   183  VAL183     -0.2718
     13  CB        21.9920  -45.7980  -36.5940 C.3   183  VAL183      0.0266
     14  CG1       22.7680  -45.1240  -37.7220 C.3   183  VAL183      0.0020
     15  CG2       22.8830  -46.8030  -35.8890 C.3   183  VAL183      0.0020
     16  N         19.6840  -43.2810  -36.2950 N.am  184  THR184     -0.1939
     17  CA        19.1400  -42.1010  -36.9630 C.3   184  THR184      0.2028
     18  C         19.9680  -40.9410  -36.4550 C.2   184  THR184      0.2642
     19  O         20.1500  -39.9270  -37.1340 O.2   184  THR184     -0.2714
     20  CB        17.7020  -41.8360  -36.5500 C.3   184  THR184      0.1808
     21  OG1       16.9030  -42.9840  -36.8510 O.3   184  THR184     -0.2208
     22  CG2       17.1630  -40.6160  -37.2820 C.3   184  THR184      0.0379
     23  N         20.4560  -41.1360  -35.2320 N.am  185  VAL185     -0.1963
     24  CA        21.2900  -40.1930  -34.5040 C.3   185  VAL185      0.1727
     25  C         22.1380  -41.0240  -33.5420 C.2   185  VAL185      0.2616
     26  O         21.9900  -42.2440  -33.4950 O.2   185  VAL185     -0.2715
     27  CB        20.4210  -39.2220  -33.7260 C.3   185  VAL185      0.0290
     28  CG1       19.7150  -38.2840  -34.6900 C.3   185  VAL185      0.0023
     29  CG2       19.3950  -39.9980  -32.9240 C.3   185  VAL185      0.0023
     30  N         23.0150  -40.3830  -32.7750 N.am  186  GLN186     -0.1977
     31  CA        23.8800  -41.1220  -31.8560 C.3   186  GLN186      0.1601
     32  C         23.5130  -41.0850  -30.3910 C.2   186  GLN186      0.2287
     33  O         23.1570  -40.0490  -29.8520 O.2   186  GLN186     -0.2864
     34  CB        25.3190  -40.6700  -32.0140 C.3   186  GLN186      0.0394
     35  CG        26.0560  -41.4390  -33.0650 C.3   186  GLN186      0.0908
     36  CD        27.5050  -41.0720  -33.1000 C.2   186  GLN186      0.2608
     37  OE1       27.8790  -40.0120  -33.6030 O.2   186  GLN186     -0.2717
     38  NE2       28.3410  -41.9380  -32.5430 N.am  186  GLN186     -0.0878
     39  N         30.5620  -36.2600  -34.0210 N.3   247  ALA247     -0.1245
     40  CA        30.0040  -36.2760  -35.3730 C.3   247  ALA247      0.1562
     41  C         29.4420  -34.9280  -35.8090 C.2   247  ALA247      0.2260
     42  O         28.3340  -34.8820  -36.3250 O.2   247  ALA247     -0.2867
     43  CB        28.8990  -37.3130  -35.4560 C.3   247  ALA247      0.0290
     44  N         27.3590  -32.0540  -36.5210 N.3   249  ASP249     -0.1225
     45  CA        26.1170  -31.9630  -37.2890 C.3   249  ASP249      0.1805
     46  C         25.2660  -33.2140  -37.4460 C.2   249  ASP249      0.2598
     47  O         24.6310  -33.4380  -38.4750 O.2   249  ASP249     -0.2718
     48  CB        26.3970  -31.3250  -38.6480 C.3   249  ASP249      0.1424
     49  CG        26.4960  -29.8120  -38.5560 C.2   249  ASP249      0.3668
     50  OD1       25.4360  -29.1620  -38.4580 O.co2 249  ASP249     -0.2456
     51  OD2       27.6240  -29.2730  -38.5560 O.co2 249  ASP249     -0.2456
     52  N         25.2520  -34.0190  -36.3960 N.am  250  GLN250     -0.1965
     53  CA        24.4430  -35.2160  -36.3670 C.3   250  GLN250      0.1733
     54  C         23.6950  -35.1800  -35.0500 C.2   250  GLN250      0.2616
     55  O         24.2720  -35.3690  -33.9800 O.2   250  GLN250     -0.2715
     56  CB        25.2920  -36.4840  -36.4500 C.3   250  GLN250      0.0408
     57  CG        24.4800  -37.7540  -36.1970 C.3   250  GLN250      0.0908
     58  CD        25.1810  -39.0250  -36.6480 C.2   250  GLN250      0.2608
     59  OE1       25.3400  -39.2730  -37.8450 O.2   250  GLN250     -0.2717
     60  NE2       25.6030  -39.8410  -35.6870 N.am  250  GLN250     -0.0878
     61  N         22.4010  -34.9010  -35.1490 N.am  251  ARG251     -0.1977
     62  CA        21.5310  -34.8360  -33.9880 C.3   251  ARG251      0.1597
     63  C         22.0480  -35.8800  -33.0050 C.2   251  ARG251      0.2287
     64  O         22.4230  -36.9850  -33.3950 O.2   251  ARG251     -0.2864
     65  CB        20.0780  -35.1240  -34.4180 C.3   251  ARG251      0.0334
     66  CG        19.0300  -35.0680  -33.3150 C.3   251  ARG251      0.0492
     67  CD        17.6650  -35.5260  -33.8330 C.3   251  ARG251      0.2205
     68  NE        16.8110  -36.0760  -32.7720 N.pl3 251  ARG251     -0.0865
     69  CZ        15.6380  -36.6810  -32.9760 C.cat 251  ARG251      0.5346
     70  NH1       15.1590  -36.8220  -34.2040 N.pl3 251  ARG251      0.1354
     71  NH2       14.9430  -37.1590  -31.9530 N.pl3 251  ARG251      0.1354
     72  N         23.3620  -30.9890  -30.0410 N.3   301  LEU301     -0.1245
     73  CA        24.0210  -31.0050  -31.3350 C.3   301  LEU301      0.1561
     74  C         25.2810  -30.1580  -31.3870 C.2   301  LEU301      0.2260
     75  O         25.2930  -29.0120  -30.9410 O.2   301  LEU301     -0.2867
     76  CB        23.0620  -30.5310  -32.4190 C.3   301  LEU301      0.0270
     77  CG        23.7530  -30.0820  -33.7030 C.3   301  LEU301      0.0019
     78  CD1       22.7990  -30.1860  -34.8500 C.3   301  LEU301      0.0001
     79  CD2       24.2410  -28.6560  -33.5550 C.3   301  LEU301      0.0001
     80  N         34.2070  -34.4440  -34.5660 N.3   329  TYR329     -0.1241
     81  CA        34.9000  -34.2490  -35.8280 C.3   329  TYR329      0.1605
     82  C         34.0540  -33.6030  -36.8760 C.2   329  TYR329      0.2264
     83  O         32.8660  -33.3940  -36.6830 O.2   329  TYR329     -0.2867
     84  CB        35.3940  -35.5740  -36.3630 C.3   329  TYR329      0.0534
     85  CG        34.2990  -36.5860  -36.5350 C.ar  329  TYR329     -0.0201
     86  CD1       33.6110  -36.6970  -37.7380 C.ar  329  TYR329     -0.0009
     87  CD2       33.9690  -37.4620  -35.5000 C.ar  329  TYR329     -0.0009
     88  CE1       32.6170  -37.6720  -37.9120 C.ar  329  TYR329      0.0417
     89  CE2       32.9850  -38.4360  -35.6550 C.ar  329  TYR329      0.0417
     90  CZ        32.3100  -38.5430  -36.8650 C.ar  329  TYR329      0.1957
     91  OH        31.3440  -39.5210  -37.0330 O.3   329  TYR329     -0.2866
     92  N         32.9630  -34.4790  -40.3380 N.3   331  ASN331     -0.1225
     93  CA        32.8800  -35.4680  -41.4010 C.3   331  ASN331      0.1785
     94  C         33.2250  -34.8910  -42.7680 C.2   331  ASN331      0.2597
     95  O         33.4810  -35.6380  -43.7100 O.2   331  ASN331     -0.2718
     96  CB        31.4940  -36.1090  -41.4530 C.3   331  ASN331      0.1169
     97  CG        31.5620  -37.6320  -41.4580 C.2   331  ASN331      0.2627
     98  OD1       32.4310  -38.2290  -42.1060 O.2   331  ASN331     -0.2716
     99  ND2       30.6420  -38.2690  -40.7390 N.am  331  ASN331     -0.0877
    100  N         33.2520  -33.5690  -42.8750 N.am  332  LYS332     -0.1980
    101  CA        33.5710  -32.9310  -44.1410 C.3   332  LYS332      0.1596
    102  C         35.0380  -32.5260  -44.3200 C.2   332  LYS332      0.2287
    103  O         35.3850  -31.3560  -44.1700 O.2   332  LYS332     -0.2864
    104  CB        32.6750  -31.7100  -44.3400 C.3   332  LYS332      0.0298
    105  CG        31.2070  -32.0530  -44.5540 C.3   332  LYS332      0.0038
    106  CD        31.0010  -32.8210  -45.8600 C.3   332  LYS332      0.0206
    107  CE        29.5270  -33.1040  -46.1380 C.3   332  LYS332      0.1093
    108  NZ        29.3480  -33.8120  -47.4340 N.3   332  LYS332     -0.1314
    109  N         30.6010  -51.2260  -36.9580 N.3   430  ASN430     -0.1240
    110  CA        29.1610  -51.3520  -36.8520 C.3   430  ASN430      0.1653
    111  C         28.7150  -52.8020  -36.8370 C.2   430  ASN430      0.2266
    112  O         28.2440  -53.3000  -35.8180 O.2   430  ASN430     -0.2867
    113  CB        28.4570  -50.6450  -38.0100 C.3   430  ASN430      0.1155
    114  CG        28.5080  -49.1400  -37.9000 C.2   430  ASN430      0.2627
    115  OD1       28.2250  -48.5710  -36.8470 O.2   430  ASN430     -0.2716
    116  ND2       28.8590  -48.4910  -39.0020 N.am  430  ASN430     -0.0877
    117  N         36.1290  -47.7920  -45.1240 N.3   451  ILE451     -0.1245
    118  CA        35.8120  -46.5610  -44.4220 C.3   451  ILE451      0.1561
    119  C         35.3500  -46.7420  -42.9790 C.2   451  ILE451      0.2260
    120  O         34.2000  -47.0580  -42.7460 O.2   451  ILE451     -0.2867
    121  CB        34.7380  -45.7670  -45.2330 C.3   451  ILE451      0.0252
    122  CG1       34.3690  -44.4680  -44.5140 C.3   451  ILE451      0.0019
    123  CG2       33.5260  -46.6380  -45.5000 C.3   451  ILE451      0.0019
    124  CD1       35.0980  -43.2260  -45.0460 C.3   451  ILE451      0.0001
    125  N         33.8740  -45.6380  -39.6320 N.3   453  ASN453     -0.1226
    126  CA        32.9100  -44.5520  -39.4060 C.3   453  ASN453      0.1770
    127  C         31.6990  -45.2760  -38.8440 C.2   453  ASN453      0.2439
    128  O         30.7440  -45.5500  -39.5690 O.2   453  ASN453     -0.2733
    129  CB        32.5510  -43.8640  -40.7400 C.3   453  ASN453      0.1168
    130  CG        32.0880  -42.4170  -40.5690 C.2   453  ASN453      0.2627
    131  OD1       31.0840  -42.1470  -39.9100 O.2   453  ASN453     -0.2716
    132  ND2       32.8180  -41.4810  -41.1810 N.am  453  ASN453     -0.0877
    133  N         31.7000  -45.5680  -37.5350 N.am  454  PRO454     -0.2729
    134  CA        32.6800  -45.3030  -36.4770 C.3   454  PRO454      0.1401
    135  C         34.0970  -45.0140  -36.9310 C.2   454  PRO454      0.2269
    136  O         34.8510  -45.9130  -37.3000 O.2   454  PRO454     -0.2865
    137  CB        32.5820  -46.5440  -35.5920 C.3   454  PRO454      0.0296
    138  CG        32.0950  -47.5890  -36.5160 C.3   454  PRO454      0.0237
    139  CD        31.0290  -46.8440  -37.2510 C.3   454  PRO454      0.0939
@<TRIPOS>BOND
     1   108   107    1
     2   107   106    1
     3   106   105    1
     4   123   121    1
     5   121   122    1
     6   121   118    1
     7   117   118    1
     8   124   122    1
     9   105   104    1
    10   118   119    1
    11   104   101    1
    12   102   103    2
    13   102   101    1
    14   101   100    1
    15    95    94    2
    16   119   120    2
    17   100    94   am
    18    94    93    1
    19    98    97    2
    20    97    96    1
    21    97    99   am
    22    96    93    1
    23    93    92    1
    24   132   130   am
    25   129   130    1
    26   129   126    1
    27   130   131    2
    28   125   126    1
    29   128   127    2
    30   126   127    1
    31   116   114   am
    32   127   133   am
    33    48    49    1
    34    48    45    1
    35    49    51   ar
    36    49    50   ar
    37    47    46    2
    38   113   114    1
    39   113   110    1
    40    88    86   ar
    41    88    90   ar
    42   114   115    2
    43    59    58    2
    44    86    85   ar
    45    14    13    1
    46   133   139    1
    47   133   134    1
    48    46    45    1
    49    46    52   am
    50   136   135    2
    51    45    44    1
    52    22    20    1
    53   139   138    1
    54    19    18    2
    55    91    90    1
    56    17    20    1
    57    17    18    1
    58    17    16    1
    59   109   110    1
    60   135   134    1
    61    12    11    2
    62    82    83    2
    63    82    81    1
    64    90    89   ar
    65   110   111    1
    66    21    20    1
    67   111   112    2
    68    58    57    1
    69    58    60   am
    70    13    15    1
    71    13    10    1
    72    85    84    1
    73    85    87   ar
    74   138   137    1
    75   134   137    1
    76    18    23   am
    77    56    53    1
    78    56    57    1
    79    52    53    1
    80    53    54    1
    81    84    81    1
    82    42    41    2
    83    11    16   am
    84    11    10    1
    85    81    80    1
    86    41    40    1
    87    89    87   ar
    88    10     9    1
    89    43    40    1
    90    40    39    1
    91    23    24    1
    92    61    54   am
    93    61    62    1
    94    54    55    2
    95    78    77    1
    96    28    27    1
    97    24    27    1
    98    24    25    1
    99    65    62    1
   100    65    66    1
   101    70    69    1
   102    62    63    1
   103    67    66    1
   104    67    68    1
   105    27    29    1
   106    77    79    1
   107    77    76    1
   108    37    36    2
   109    25    26    2
   110    25    30   am
   111    64    63    2
   112    36    35    1
   113    36    38   am
   114    35    34    1
   115    69    68    2
   116    69    71    1
   117    30    31    1
   118    76    73    1
   119     7     6    1
   120    34    31    1
   121    31    32    1
   122    74    73    1
   123    74    75    2
   124    73    72    1
   125     6     5    1
   126     6     8    1
   127     5     2    1
   128    32    33    2
   129     1     2    1
   130     2     3    1
   131     3     4    2
