@<TRIPOS>MOLECULE
tmp/2r7gA01.pdb
 136 129 0 0 0
SMALL
GASTEIGER

@<TRIPOS>ATOM
      1  N         -4.2380   -8.9480  -21.7180 N.3   260  TYR260     -0.1227
      2  CA        -3.6740   -9.4290  -22.9790 C.3   260  TYR260      0.1736
      3  C         -3.8990  -10.9280  -23.1850 C.2   260  TYR260      0.2596
      4  O         -4.3000  -11.3590  -24.2790 O.2   260  TYR260     -0.2718
      5  CB        -2.1790   -9.0970  -23.1070 C.3   260  TYR260      0.0548
      6  CG        -1.6190   -9.5010  -24.4620 C.ar  260  TYR260     -0.0200
      7  CD1       -1.1230  -10.7840  -24.6800 C.ar  260  TYR260     -0.0009
      8  CD2       -1.6270   -8.6090  -25.5390 C.ar  260  TYR260     -0.0009
      9  CE1       -0.6310  -11.1680  -25.9270 C.ar  260  TYR260      0.0417
     10  CE2       -1.1370   -8.9860  -26.8000 C.ar  260  TYR260      0.0417
     11  CZ        -0.6400  -10.2660  -26.9790 C.ar  260  TYR260      0.1957
     12  OH        -0.1550  -10.6520  -28.2120 O.3   260  TYR260     -0.2866
     13  N         -3.6360  -11.7070  -22.1380 N.am  261  GLY261     -0.1957
     14  CA        -3.7150  -13.1660  -22.1970 C.3   261  GLY261      0.1869
     15  C         -5.1030  -13.6790  -22.5360 C.2   261  GLY261      0.2309
     16  O         -5.2660  -14.5290  -23.4240 O.2   261  GLY261     -0.2863
     17  N         -6.2210  -12.7780  -26.0540 N.3   264  LYS264     -0.1231
     18  CA        -5.4810  -13.6910  -26.9250 C.3   264  LYS264      0.1693
     19  C         -6.1400  -15.0600  -27.0960 C.2   264  LYS264      0.2591
     20  O         -6.2730  -15.5230  -28.2290 O.2   264  LYS264     -0.2718
     21  CB        -4.0390  -13.8600  -26.4480 C.3   264  LYS264      0.0285
     22  CG        -3.0090  -13.1680  -27.3160 C.3   264  LYS264      0.0035
     23  CD        -2.5980  -14.0320  -28.4910 C.3   264  LYS264      0.0206
     24  CE        -1.3250  -13.5060  -29.1610 C.3   264  LYS264      0.1093
     25  NZ        -1.6040  -12.6870  -30.4620 N.3   264  LYS264     -0.1314
     26  N         -6.5390  -15.7120  -25.9960 N.am  265  VAL265     -0.1980
     27  CA        -7.2490  -17.0050  -26.1050 C.3   265  VAL265      0.1595
     28  C         -8.6900  -16.8670  -26.5560 C.2   265  VAL265      0.2287
     29  O         -9.2830  -17.8440  -27.0060 O.2   265  VAL265     -0.2864
     30  CB        -7.2540  -17.8810  -24.8040 C.3   265  VAL265      0.0276
     31  CG1       -5.9900  -18.7220  -24.6930 C.3   265  VAL265      0.0022
     32  CG2       -7.5440  -17.0780  -23.5610 C.3   265  VAL265      0.0022
     33  N         -9.5480  -15.0390  -29.0230 N.3   267  ASN267     -0.1240
     34  CA        -9.4230  -14.6640  -30.4350 C.3   267  ASN267      0.1653
     35  C         -9.8200  -13.1990  -30.6950 C.2   267  ASN267      0.2266
     36  O        -10.4920  -12.8820  -31.6800 O.2   267  ASN267     -0.2867
     37  CB       -10.2090  -15.6520  -31.3150 C.3   267  ASN267      0.1155
     38  CG        -9.9000  -15.5150  -32.8060 C.2   267  ASN267      0.2627
     39  OD1      -10.7020  -15.9240  -33.6440 O.2   267  ASN267     -0.2716
     40  ND2       -8.7410  -14.9470  -33.1400 N.am  267  ASN267     -0.0877
     41  N         -3.2500   -5.7950  -29.1550 N.3   271  LYS271     -0.1231
     42  CA        -1.8120   -5.7570  -28.8750 C.3   271  LYS271      0.1693
     43  C         -1.4900   -4.8940  -27.6560 C.2   271  LYS271      0.2592
     44  O         -2.2750   -4.0170  -27.2690 O.2   271  LYS271     -0.2718
     45  CB        -0.9840   -5.3370  -30.1030 C.3   271  LYS271      0.0285
     46  CG        -1.3000   -3.9660  -30.6990 C.3   271  LYS271      0.0035
     47  CD        -0.4660   -3.6930  -31.9660 C.3   271  LYS271      0.0206
     48  CE        -0.9620   -4.4700  -33.1820 C.3   271  LYS271      0.1093
     49  NZ        -2.0850   -3.7930  -33.9030 N.3   271  LYS271     -0.1314
     50  N         -0.3330   -5.1590  -27.0560 N.am  272  PHE272     -0.1962
     51  CA         0.1100   -4.4200  -25.8850 C.3   272  PHE272      0.1771
     52  C          0.1810   -2.9220  -26.1270 C.2   272  PHE272      0.2619
     53  O         -0.1330   -2.1510  -25.2380 O.2   272  PHE272     -0.2715
     54  CB         1.4610   -4.9300  -25.3870 C.3   272  PHE272      0.0574
     55  CG         1.3550   -5.9670  -24.3020 C.ar  272  PHE272     -0.0200
     56  CD1        1.0560   -5.5950  -22.9910 C.ar  272  PHE272     -0.0042
     57  CD2        1.5560   -7.3140  -24.5900 C.ar  272  PHE272     -0.0042
     58  CE1        0.9610   -6.5450  -21.9950 C.ar  272  PHE272     -0.0003
     59  CE2        1.4690   -8.2790  -23.5890 C.ar  272  PHE272     -0.0003
     60  CZ         1.1640   -7.8930  -22.2970 C.ar  272  PHE272     -0.0000
     61  N          0.5750   -2.5100  -27.3350 N.am  273  LYS273     -0.1977
     62  CA         0.6800   -1.0850  -27.6440 C.3   273  LYS273      0.1596
     63  C         -0.6180   -0.3430  -27.3130 C.2   273  LYS273      0.2287
     64  O         -0.5780    0.7600  -26.7680 O.2   273  LYS273     -0.2864
     65  CB         1.0780   -0.8660  -29.1100 C.3   273  LYS273      0.0298
     66  CG         1.3830    0.5950  -29.4660 C.3   273  LYS273      0.0038
     67  CD         2.0210    0.7060  -30.8500 C.3   273  LYS273      0.0206
     68  CE         2.2090    2.1680  -31.2560 C.3   273  LYS273      0.1093
     69  NZ         2.5220    2.3330  -32.7100 N.3   273  LYS273     -0.1314
     70  N         10.7820   -4.4040  -21.2090 N.3   302  SER302     -0.1217
     71  CA         9.3810   -3.9930  -21.3890 C.3   302  SER302      0.1889
     72  C          8.3920   -5.0330  -20.8350 C.2   302  SER302      0.2288
     73  O          8.7550   -6.1890  -20.6130 O.2   302  SER302     -0.2866
     74  CB         9.0820   -3.7320  -22.8710 C.3   302  SER302      0.2089
     75  OG         8.6450   -4.9090  -23.5050 O.3   302  SER302     -0.2183
     76  N          6.1680   -6.4780  -22.4270 N.3   304  ILE304     -0.1245
     77  CA         6.0030   -7.5290  -23.4250 C.3   304  ILE304      0.1561
     78  C          7.0010   -8.6720  -23.2000 C.2   304  ILE304      0.2260
     79  O          6.6450   -9.8450  -23.3010 O.2   304  ILE304     -0.2867
     80  CB         6.1210   -6.9710  -24.8760 C.3   304  ILE304      0.0252
     81  CG1        4.9800   -5.9900  -25.1560 C.3   304  ILE304      0.0019
     82  CG2        6.1180   -8.1030  -25.8840 C.3   304  ILE304      0.0019
     83  CD1        5.0230   -5.3610  -26.5450 C.3   304  ILE304      0.0001
     84  N          5.7640  -10.5110  -20.2560 N.3   307  TYR307     -0.1227
     85  CA         4.6320  -11.3530  -20.6770 C.3   307  TYR307      0.1736
     86  C          5.0880  -12.6130  -21.4200 C.2   307  TYR307      0.2595
     87  O          4.6680  -13.7230  -21.0960 O.2   307  TYR307     -0.2718
     88  CB         3.6170  -10.5820  -21.5340 C.3   307  TYR307      0.0548
     89  CG         2.5620  -11.5010  -22.1200 C.ar  307  TYR307     -0.0200
     90  CD1        1.4230  -11.8460  -21.3910 C.ar  307  TYR307     -0.0009
     91  CD2        2.7130  -12.0420  -23.3980 C.ar  307  TYR307     -0.0009
     92  CE1        0.4560  -12.7090  -21.9240 C.ar  307  TYR307      0.0417
     93  CE2        1.7540  -12.9080  -23.9390 C.ar  307  TYR307      0.0417
     94  CZ         0.6310  -13.2370  -23.2000 C.ar  307  TYR307      0.1957
     95  OH        -0.3140  -14.0870  -23.7450 O.3   307  TYR307     -0.2866
     96  N          5.9430  -12.4250  -22.4230 N.am  308  ASN308     -0.1974
     97  CA         6.3930  -13.5390  -23.2530 C.3   308  ASN308      0.1688
     98  C          7.2710  -14.5520  -22.5230 C.2   308  ASN308      0.2292
     99  O          7.2220  -15.7370  -22.8270 O.2   308  ASN308     -0.2864
    100  CB         7.1040  -13.0140  -24.5000 C.3   308  ASN308      0.1181
    101  CG         6.1270  -12.5770  -25.5700 C.2   308  ASN308      0.2629
    102  OD1        5.0600  -13.1730  -25.7190 O.2   308  ASN308     -0.2716
    103  ND2        6.4780  -11.5330  -26.3210 N.am  308  ASN308     -0.0877
    104  N          3.6680  -15.7920  -19.2390 N.3   312  MET312     -0.1245
    105  CA         3.1830  -16.9580  -19.9670 C.3   312  MET312      0.1570
    106  C          3.9030  -18.2520  -19.5650 C.2   312  MET312      0.2261
    107  O          3.2760  -19.3010  -19.4880 O.2   312  MET312     -0.2867
    108  CB         3.2710  -16.7250  -21.4600 C.3   312  MET312      0.0387
    109  CG         2.2100  -17.4520  -22.2420 C.3   312  MET312      0.0595
    110  SD         2.8030  -17.5880  -23.9090 S.3   312  MET312     -0.1393
    111  CE         3.2730  -15.8880  -24.2260 C.3   312  MET312      0.0692
    112  N          0.7430  -20.1570  -18.9510 N.3   316  LYS316     -0.1245
    113  CA         0.2680  -20.5430  -20.2900 C.3   316  LYS316      0.1561
    114  C         -0.8750  -21.5520  -20.2240 C.2   316  LYS316      0.2260
    115  O         -1.9200  -21.3550  -20.8430 O.2   316  LYS316     -0.2867
    116  CB         1.4080  -21.0540  -21.1840 C.3   316  LYS316      0.0271
    117  CG         2.4010  -21.9930  -20.4970 C.3   316  LYS316      0.0035
    118  CD         3.5340  -22.3990  -21.4380 C.3   316  LYS316      0.0206
    119  CE         4.7950  -22.7560  -20.6540 C.3   316  LYS316      0.1093
    120  NZ         5.7140  -23.5870  -21.4840 N.3   316  LYS316     -0.1314
    121  N         -4.1010  -20.1030  -18.7420 N.3   319  ILE319     -0.1231
    122  CA        -4.7850  -19.2550  -19.7240 C.3   319  ILE319      0.1692
    123  C         -5.5510  -20.0990  -20.7490 C.2   319  ILE319      0.2591
    124  O         -6.6830  -19.7640  -21.0950 O.2   319  ILE319     -0.2718
    125  CB        -3.7990  -18.2900  -20.4530 C.3   319  ILE319      0.0266
    126  CG1       -3.1620  -17.3000  -19.4590 C.3   319  ILE319      0.0019
    127  CG2       -4.5000  -17.5170  -21.5670 C.3   319  ILE319      0.0020
    128  CD1       -1.9390  -16.5600  -20.0070 C.3   319  ILE319      0.0001
    129  N         -4.9350  -21.1870  -21.2130 N.am  320  LEU320     -0.1980
    130  CA        -5.5720  -22.1100  -22.1760 C.3   320  LEU320      0.1596
    131  C         -6.8580  -22.7570  -21.6540 C.2   320  LEU320      0.2287
    132  O         -7.7480  -23.0880  -22.4420 O.2   320  LEU320     -0.2864
    133  CB        -4.5830  -23.1790  -22.6520 C.3   320  LEU320      0.0297
    134  CG        -3.4340  -22.7020  -23.5490 C.3   320  LEU320      0.0022
    135  CD1       -2.3610  -23.7770  -23.6950 C.3   320  LEU320      0.0001
    136  CD2       -3.9270  -22.2320  -24.9170 C.3   320  LEU320      0.0001
@<TRIPOS>BOND
     1    49    48    1
     2    39    38    2
     3    48    47    1
     4    40    38   am
     5    38    37    1
     6    69    68    1
     7    47    46    1
     8    36    35    2
     9    37    34    1
    10    68    67    1
    11    67    66    1
    12    46    45    1
    13    35    34    1
    14    25    24    1
    15    34    33    1
    16    45    42    1
    17    66    65    1
    18    24    23    1
    19    41    42    1
    20    65    62    1
    21    42    43    1
    22    23    22    1
    23    20    19    2
    24    12    11    1
    25    43    44    2
    26    43    50   am
    27    62    61    1
    28    62    63    1
    29    61    52   am
    30    22    21    1
    31    63    64    2
    32    19    18    1
    33    19    26   am
    34    50    51    1
    35    29    28    2
    36    11    10   ar
    37    11     9   ar
    38    18    21    1
    39    18    17    1
    40    10     8   ar
    41    28    27    1
    42    83    81    1
    43   103   101   am
    44    52    51    1
    45    52    53    2
    46    27    26    1
    47    27    30    1
    48     9     7   ar
    49    51    54    1
    50    82    80    1
    51   102   101    2
    52   101   100    1
    53     8     6   ar
    54    54    55    1
    55    81    80    1
    56   136   134    1
    57    80    77    1
    58    30    31    1
    59    30    32    1
    60     7     6   ar
    61    57    55   ar
    62    57    59   ar
    63   100    97    1
    64     6     5    1
    65    55    56   ar
    66     4     3    2
    67   111   110    1
    68    93    91   ar
    69    93    94   ar
    70   110   109    1
    71    95    94    1
    72   135   134    1
    73    59    60   ar
    74   134   133    1
    75    75    74    1
    76    77    78    1
    77    77    76    1
    78    16    15    2
    79    91    89   ar
    80    79    78    2
    81    97    98    1
    82    97    96    1
    83    94    92   ar
    84     3     2    1
    85     3    13   am
    86     5     2    1
    87    56    58   ar
    88     2     1    1
    89    74    71    1
    90    99    98    2
    91   133   130    1
    92    15    14    1
    93   132   131    2
    94    96    86   am
    95    60    58   ar
    96   109   108    1
    97    14    13    1
    98   130   131    1
    99   130   129    1
   100    89    88    1
   101    89    90   ar
   102    92    90   ar
   103   127   125    1
   104    88    85    1
   105   120   119    1
   106   108   105    1
   107   118   119    1
   108   118   117    1
   109    86    87    2
   110    86    85    1
   111    71    70    1
   112    71    72    1
   113   129   123   am
   114   116   117    1
   115   116   113    1
   116   124   123    2
   117   115   114    2
   118    72    73    2
   119   123   122    1
   120    85    84    1
   121   125   122    1
   122   125   126    1
   123   113   114    1
   124   113   112    1
   125   128   126    1
   126   105   106    1
   127   105   104    1
   128   122   121    1
   129   106   107    2
