@<TRIPOS>MOLECULE
tmp/2r7kA00.pdb
 176 168 0 0 0
SMALL
GASTEIGER

@<TRIPOS>ATOM
      1  N         22.4830   18.9050   33.8500 N.3   125  ARG125     -0.1245
      2  CA        21.2290   19.2720   34.5020 C.3   125  ARG125      0.1563
      3  C         21.0410   20.7840   34.6210 C.2   125  ARG125      0.2260
      4  O         19.9160   21.2840   34.5450 O.2   125  ARG125     -0.2867
      5  CB        21.1530   18.6170   35.8840 C.3   125  ARG125      0.0307
      6  CG        19.8170   18.7880   36.5920 C.3   125  ARG125      0.0489
      7  CD        19.8370   18.1650   37.9870 C.3   125  ARG125      0.2205
      8  NE        20.0880   16.7230   37.9590 N.pl3 125  ARG125     -0.0865
      9  CZ        19.1470   15.7950   37.7890 C.cat 125  ARG125      0.5346
     10  NH1       17.8760   16.1490   37.6240 N.pl3 125  ARG125      0.1354
     11  NH2       19.4770   14.5080   37.7810 N.pl3 125  ARG125      0.1354
     12  N          9.4040   20.4360   37.7440 N.3   140  PRO140     -0.2116
     13  CA         9.2220   20.1360   39.1670 C.3   140  PRO140      0.1372
     14  C          9.9760   21.1520   40.0380 C.2   140  PRO140      0.2244
     15  O         11.0450   21.6240   39.6440 O.2   140  PRO140     -0.2868
     16  CB         9.8640   18.7530   39.3200 C.3   140  PRO140      0.0268
     17  CG         9.9700   18.1960   37.9120 C.3   140  PRO140      0.0207
     18  CD        10.1780   19.3930   37.0500 C.3   140  PRO140      0.0892
     19  N         11.2140   13.3390   45.0050 N.3   154  ILE154     -0.1245
     20  CA        12.0190   12.2500   44.4870 C.3   154  ILE154      0.1561
     21  C         13.4730   12.7060   44.5440 C.2   154  ILE154      0.2260
     22  O         13.7700   13.8850   44.3260 O.2   154  ILE154     -0.2867
     23  CB        11.6040   11.8510   43.0440 C.3   154  ILE154      0.0252
     24  CG1       12.4460   10.6740   42.5480 C.3   154  ILE154      0.0019
     25  CG2       11.7060   13.0510   42.1000 C.3   154  ILE154      0.0019
     26  CD1       11.9390   10.0480   41.2600 C.3   154  ILE154      0.0001
     27  N         17.4230   12.1060   43.2130 N.3   156  LYS156     -0.1245
     28  CA        18.2320   11.5030   42.1670 C.3   156  LYS156      0.1561
     29  C         19.7300   11.6470   42.4310 C.2   156  LYS156      0.2260
     30  O         20.2250   12.7420   42.6980 O.2   156  LYS156     -0.2867
     31  CB        17.8700   12.1190   40.8140 C.3   156  LYS156      0.0271
     32  CG        16.3970   11.9900   40.4700 C.3   156  LYS156      0.0035
     33  CD        16.0150   12.8570   39.2880 C.3   156  LYS156      0.0206
     34  CE        14.5420   12.6620   38.9370 C.3   156  LYS156      0.1093
     35  NZ        14.0520   13.6390   37.9200 N.3   156  LYS156     -0.1314
     36  N         17.8640    6.1510   43.3120 N.3   163  TYR163     -0.1241
     37  CA        16.6460    6.9200   43.5520 C.3   163  TYR163      0.1605
     38  C         16.0000    6.5160   44.8680 C.2   163  TYR163      0.2264
     39  O         16.0950    5.3610   45.2930 O.2   163  TYR163     -0.2867
     40  CB        15.6130    6.6790   42.4410 C.3   163  TYR163      0.0534
     41  CG        16.0550    7.0370   41.0390 C.ar  163  TYR163     -0.0201
     42  CD1       16.7140    6.1080   40.2390 C.ar  163  TYR163     -0.0009
     43  CD2       15.7890    8.2910   40.5080 C.ar  163  TYR163     -0.0009
     44  CE1       17.1170    6.4250   38.9540 C.ar  163  TYR163      0.0417
     45  CE2       16.1870    8.6220   39.2220 C.ar  163  TYR163      0.0417
     46  CZ        16.8550    7.6830   38.4490 C.ar  163  TYR163      0.1957
     47  OH        17.2540    8.0000   37.1660 O.3   163  TYR163     -0.2866
     48  N         13.8420   16.9570   44.0280 N.3   196  GLU196     -0.1231
     49  CA        12.7780   17.7310   43.4080 C.3   196  GLU196      0.1699
     50  C         11.3900   17.2410   43.7780 C.2   196  GLU196      0.2592
     51  O         11.1950   16.0910   44.1700 O.2   196  GLU196     -0.2718
     52  CB        12.9360   17.7790   41.8760 C.3   196  GLU196      0.0402
     53  CG        12.9720   16.4180   41.1830 C.3   196  GLU196      0.1161
     54  CD        12.9680   16.5360   39.6610 C.2   196  GLU196      0.3649
     55  OE1       13.5540   17.5060   39.1300 O.co2 196  GLU196     -0.2457
     56  OE2       12.3760   15.6590   38.9940 O.co2 196  GLU196     -0.2457
     57  N         10.4260   18.1360   43.6430 N.am  197  GLU197     -0.1966
     58  CA         9.0320   17.7900   43.8160 C.3   197  GLU197      0.1733
     59  C          8.7010   16.4660   43.1260 C.2   197  GLU197      0.2616
     60  O          9.0640   16.2480   41.9730 O.2   197  GLU197     -0.2715
     61  CB         8.1790   18.9110   43.2400 C.3   197  GLU197      0.0429
     62  CG         6.7020   18.6090   43.1340 C.3   197  GLU197      0.1163
     63  CD         5.9420   19.7560   42.5160 C.2   197  GLU197      0.3649
     64  OE1        6.5920   20.6590   41.9340 O.co2 197  GLU197     -0.2457
     65  OE2        4.6970   19.7610   42.6180 O.co2 197  GLU197     -0.2457
     66  N          8.0280   15.5720   43.8370 N.am  198  TYR198     -0.1960
     67  CA         7.5390   14.3570   43.2140 C.3   198  TYR198      0.1771
     68  C          6.2090   14.7070   42.5470 C.2   198  TYR198      0.2619
     69  O          5.2370   15.0690   43.2260 O.2   198  TYR198     -0.2715
     70  CB         7.3760   13.2320   44.2390 C.3   198  TYR198      0.0574
     71  CG         7.0320   11.8990   43.6140 C.ar  198  TYR198     -0.0198
     72  CD1        7.9990   10.9170   43.4490 C.ar  198  TYR198     -0.0009
     73  CD2        5.7390   11.6260   43.1750 C.ar  198  TYR198     -0.0009
     74  CE1        7.6920    9.6960   42.8660 C.ar  198  TYR198      0.0417
     75  CE2        5.4170   10.4080   42.5890 C.ar  198  TYR198      0.0417
     76  CZ         6.3990    9.4470   42.4350 C.ar  198  TYR198      0.1957
     77  OH         6.0900    8.2320   41.8610 O.3   198  TYR198     -0.2866
     78  N          6.1770   14.6460   41.2150 N.am  199  VAL199     -0.1977
     79  CA         4.9560   14.9730   40.4790 C.3   199  VAL199      0.1596
     80  C          4.0830   13.7330   40.3390 C.2   199  VAL199      0.2287
     81  O          4.5430   12.6860   39.8930 O.2   199  VAL199     -0.2864
     82  CB         5.2570   15.6130   39.0970 C.3   199  VAL199      0.0276
     83  CG1        3.9590   15.8910   38.3270 C.3   199  VAL199      0.0022
     84  CG2        6.0460   16.9060   39.2780 C.3   199  VAL199      0.0022
     85  N          2.5620    9.6760   32.7770 N.3   203  ASN203     -0.1240
     86  CA         3.7490    9.8670   31.9620 C.3   203  ASN203      0.1653
     87  C          3.4570    9.9830   30.4620 C.2   203  ASN203      0.2266
     88  O          2.8890    9.0740   29.8520 O.2   203  ASN203     -0.2867
     89  CB         4.7040    8.6970   32.1840 C.3   203  ASN203      0.1155
     90  CG         6.0270    8.8610   31.4500 C.2   203  ASN203      0.2627
     91  OD1        6.6390    7.8740   31.0600 O.2   203  ASN203     -0.2716
     92  ND2        6.4850   10.1010   31.2870 N.am  203  ASN203     -0.0877
     93  N          7.1080    5.3150   29.9590 N.3   225  ARG225     -0.1245
     94  CA         8.2480    4.4820   30.3000 C.3   225  ARG225      0.1563
     95  C          7.7710    3.2500   31.0360 C.2   225  ARG225      0.2260
     96  O          6.7350    3.2790   31.7120 O.2   225  ARG225     -0.2867
     97  CB         9.2290    5.2520   31.1890 C.3   225  ARG225      0.0307
     98  CG         9.7970    6.4990   30.5490 C.3   225  ARG225      0.0489
     99  CD        10.7020    6.1340   29.3900 C.3   225  ARG225      0.2205
    100  NE        11.6440    7.2050   29.0850 N.pl3 225  ARG225     -0.0865
    101  CZ        11.7570    7.8020   27.9010 C.cat 225  ARG225      0.5346
    102  NH1       10.9930    7.4300   26.8830 N.pl3 225  ARG225      0.1354
    103  NH2       12.6480    8.7700   27.7380 N.pl3 225  ARG225      0.1354
    104  N          9.5660    0.8200   33.5870 N.3   227  GLU227     -0.1245
    105  CA        10.7970    0.8330   34.3830 C.3   227  GLU227      0.1567
    106  C         10.8260   -0.2670   35.4520 C.2   227  GLU227      0.2260
    107  O          9.8030   -0.6060   36.0240 O.2   227  GLU227     -0.2867
    108  CB        10.9830    2.2200   35.0130 C.3   227  GLU227      0.0388
    109  CG        11.3580    3.2940   34.0030 C.3   227  GLU227      0.1160
    110  CD        11.0480    4.7030   34.4670 C.2   227  GLU227      0.3649
    111  OE1       10.1800    4.8780   35.3460 O.co2 227  GLU227     -0.2457
    112  OE2       11.6750    5.6450   33.9360 O.co2 227  GLU227     -0.2457
    113  N         14.4670    2.6060   39.1000 N.3   250  TYR250     -0.1227
    114  CA        13.8110    3.1600   37.9200 C.3   250  TYR250      0.1736
    115  C         14.6390    2.9490   36.6570 C.2   250  TYR250      0.2595
    116  O         14.8730    3.8810   35.8920 O.2   250  TYR250     -0.2718
    117  CB        13.5440    4.6460   38.1350 C.3   250  TYR250      0.0548
    118  CG        12.5870    4.9210   39.2750 C.ar  250  TYR250     -0.0200
    119  CD1       11.2440    5.1860   39.0270 C.ar  250  TYR250     -0.0009
    120  CD2       13.0220    4.9050   40.6040 C.ar  250  TYR250     -0.0009
    121  CE1       10.3600    5.4420   40.0590 C.ar  250  TYR250      0.0417
    122  CE2       12.1360    5.1470   41.6530 C.ar  250  TYR250      0.0417
    123  CZ        10.8080    5.4190   41.3710 C.ar  250  TYR250      0.1957
    124  OH         9.9190    5.6680   42.3970 O.3   250  TYR250     -0.2866
    125  N         15.0850    1.7180   36.4550 N.am  251  VAL251     -0.1966
    126  CA        15.8620    1.3660   35.2750 C.3   251  VAL251      0.1727
    127  C         14.9400    1.2330   34.0630 C.2   251  VAL251      0.2616
    128  O         13.9950    0.4340   34.0810 O.2   251  VAL251     -0.2715
    129  CB        16.5770    0.0250   35.4700 C.3   251  VAL251      0.0290
    130  CG1       17.5690   -0.2270   34.3240 C.3   251  VAL251      0.0023
    131  CG2       17.2870   -0.0130   36.8210 C.3   251  VAL251      0.0023
    132  N         15.2080    2.0140   33.0160 N.am  252  ILE252     -0.1977
    133  CA        14.4160    1.9260   31.7920 C.3   252  ILE252      0.1596
    134  C         14.5550    0.5500   31.1610 C.2   252  ILE252      0.2287
    135  O         15.6630    0.1290   30.8220 O.2   252  ILE252     -0.2864
    136  CB        14.7760    3.0210   30.7500 C.3   252  ILE252      0.0276
    137  CG1       13.8220    2.9270   29.5620 C.3   252  ILE252      0.0022
    138  CG2       16.2260    2.8960   30.2800 C.3   252  ILE252      0.0022
    139  CD1       12.3880    3.2320   29.9430 C.3   252  ILE252      0.0001
    140  N         10.0040   14.7270   28.2880 N.3   294  GLN294     -0.1245
    141  CA         9.5180   13.6670   29.1660 C.3   294  GLN294      0.1566
    142  C          8.7250   14.2960   30.2990 C.2   294  GLN294      0.2260
    143  O          9.2740   14.9580   31.1760 O.2   294  GLN294     -0.2867
    144  CB        10.6910   12.8530   29.6960 C.3   294  GLN294      0.0367
    145  CG        11.5140   12.2290   28.5890 C.3   294  GLN294      0.0905
    146  CD        12.9370   11.9630   29.0010 C.2   294  GLN294      0.2608
    147  OE1       13.8740   12.5560   28.4580 O.2   294  GLN294     -0.2717
    148  NE2       13.1160   11.0720   29.9700 N.am  294  GLN294     -0.0878
    149  N          5.0250   14.6810   32.9950 N.3   296  LEU296     -0.1245
    150  CA         4.0110   14.0710   33.8180 C.3   296  LEU296      0.1561
    151  C          2.8150   14.9850   33.8000 C.2   296  LEU296      0.2260
    152  O          2.9510   16.1930   33.9520 O.2   296  LEU296     -0.2867
    153  CB         4.5210   13.8690   35.2440 C.3   296  LEU296      0.0270
    154  CG         5.6000   12.7970   35.3740 C.3   296  LEU296      0.0019
    155  CD1        6.3780   12.9440   36.6860 C.3   296  LEU296      0.0001
    156  CD2        4.9890   11.4030   35.2250 C.3   296  LEU296      0.0001
    157  N         10.0710   16.7520   33.4850 N.3   306  PHE306     -0.1227
    158  CA        11.1030   16.3770   34.4330 C.3   306  PHE306      0.1736
    159  C         12.3920   16.0180   33.7240 C.2   306  PHE306      0.2595
    160  O         13.4230   15.8040   34.3640 O.2   306  PHE306     -0.2718
    161  CB        10.6420   15.2000   35.2950 C.3   306  PHE306      0.0547
    162  CG        10.3800   13.9290   34.5210 C.ar  306  PHE306     -0.0202
    163  CD1       11.4140   13.0510   34.2300 C.ar  306  PHE306     -0.0042
    164  CD2        9.0890   13.5940   34.1280 C.ar  306  PHE306     -0.0042
    165  CE1       11.1780   11.8690   33.5320 C.ar  306  PHE306     -0.0003
    166  CE2        8.8430   12.4140   33.4310 C.ar  306  PHE306     -0.0003
    167  CZ         9.8910   11.5540   33.1350 C.ar  306  PHE306     -0.0000
    168  N         12.3270   15.9440   32.3980 N.am  307  GLU307     -0.1979
    169  CA        13.4820   15.5650   31.6000 C.3   307  GLU307      0.1602
    170  C         13.2690   15.9440   30.1270 C.2   307  GLU307      0.2287
    171  O         12.1430   16.1810   29.6930 O.2   307  GLU307     -0.2864
    172  CB        13.7430   14.0620   31.7510 C.3   307  GLU307      0.0415
    173  CG        15.1350   13.6230   31.3620 C.3   307  GLU307      0.1163
    174  CD        16.2150   14.3600   32.1320 C.2   307  GLU307      0.3649
    175  OE1       17.2690   14.6610   31.5330 O.co2 307  GLU307     -0.2457
    176  OE2       16.0100   14.6400   33.3330 O.co2 307  GLU307     -0.2457
@<TRIPOS>BOND
     1   102   101    1
     2   103   101    1
     3   101   100    2
     4   140   141    1
     5   147   146    2
     6   145   146    1
     7   145   144    1
     8   146   148   am
     9   100    99    1
    10   141   144    1
    11   141   142    1
    12    99    98    1
    13   137   139    1
    14   137   136    1
    15   171   170    2
    16    88    87    2
    17    93    94    1
    18   170   169    1
    19   138   136    1
    20   142   143    2
    21    94    95    1
    22    94    97    1
    23    87    86    1
    24    98    97    1
    25   136   133    1
    26   135   134    2
    27    95    96    2
    28    91    90    2
    29   134   133    1
    30    92    90   am
    31   173   172    1
    32   173   174    1
    33    90    89    1
    34   175   174   ar
    35   169   172    1
    36   169   168    1
    37   133   132    1
    38    86    89    1
    39    86    85    1
    40   174   176   ar
    41   168   159   am
    42   149   150    1
    43   132   127   am
    44   167   166   ar
    45   167   165   ar
    46   166   164   ar
    47   157   158    1
    48   165   163   ar
    49   104   105    1
    50   159   160    2
    51   159   158    1
    52   151   150    1
    53   151   152    2
    54   150   153    1
    55     1     2    1
    56   112   110   ar
    57   109   110    1
    58   109   108    1
    59   127   128    2
    60   127   126    1
    61   164   162   ar
    62   163   162   ar
    63   130   129    1
    64   105   108    1
    65   105   106    1
    66   158   161    1
    67   110   111   ar
    68     2     3    1
    69     2     5    1
    70   162   161    1
    71     4     3    2
    72   156   154    1
    73   153   154    1
    74   126   129    1
    75   126   125    1
    76   154   155    1
    77   106   107    2
    78   129   131    1
    79     5     6    1
    80   116   115    2
    81   125   115   am
    82     6     7    1
    83   115   114    1
    84    18    12    1
    85    18    17    1
    86    47    46    1
    87    10     9    1
    88    12    13    1
    89    11     9    1
    90     9     8    2
    91    17    16    1
    92    35    34    1
    93   114   117    1
    94   114   113    1
    95     8     7    1
    96   117   118    1
    97    83    82    1
    98    46    44   ar
    99    46    45   ar
   100    34    33    1
   101    44    42   ar
   102    56    54   ar
   103   119   118   ar
   104   119   121   ar
   105    82    84    1
   106    82    79    1
   107    55    54   ar
   108    13    16    1
   109    13    14    1
   110    45    43   ar
   111   118   120   ar
   112    33    32    1
   113    15    14    2
   114    54    53    1
   115    81    80    2
   116   121   123   ar
   117    42    41   ar
   118    80    79    1
   119    32    31    1
   120    79    78    1
   121    43    41   ar
   122   120   122   ar
   123    31    28    1
   124    41    40    1
   125    53    52    1
   126    78    68   am
   127    26    24    1
   128   123   122   ar
   129   123   124    1
   130    77    76    1
   131    52    49    1
   132    64    63   ar
   133    60    59    2
   134    25    23    1
   135    28    29    1
   136    28    27    1
   137    29    30    2
   138    76    75   ar
   139    76    74   ar
   140    40    37    1
   141    63    65   ar
   142    63    62    1
   143    68    67    1
   144    68    69    2
   145    24    23    1
   146    75    73   ar
   147    74    72   ar
   148    23    20    1
   149    59    58    1
   150    59    66   am
   151    62    61    1
   152    73    71   ar
   153    67    66    1
   154    67    70    1
   155    61    58    1
   156    36    37    1
   157    49    50    1
   158    49    48    1
   159    72    71   ar
   160    37    38    1
   161    71    70    1
   162    57    50   am
   163    57    58    1
   164    50    51    2
   165    22    21    2
   166    20    21    1
   167    20    19    1
   168    38    39    2
