@<TRIPOS>MOLECULE
tmp/2r7kA01.pdb
 127 120 0 0 0
SMALL
GASTEIGER

@<TRIPOS>ATOM
      1  N         22.4340    0.2880   18.3620 N.3    26  SER26      -0.1202
      2  CA        21.8110    0.2350   19.6800 C.3    26  SER26       0.2020
      3  C         20.8440    1.3900   19.8580 C.2    26  SER26       0.2618
      4  O         20.6950    2.2300   18.9700 O.2    26  SER26      -0.2717
      5  CB        22.8830    0.3000   20.7780 C.3    26  SER26       0.2103
      6  OG        22.3060    0.1330   22.0620 O.3    26  SER26      -0.2182
      7  N         20.1950    1.4270   21.0200 N.am   27  HIS27      -0.1975
      8  CA        19.3440    2.5450   21.4220 C.3    27  HIS27       0.1656
      9  C         18.0660    2.7000   20.5830 C.2    27  HIS27       0.2291
     10  O         16.9760    2.3530   21.0320 O.2    27  HIS27      -0.2864
     11  CB        20.1390    3.8480   21.4190 C.3    27  HIS27       0.0771
     12  CG        19.4300    4.9830   22.0790 C.ar   27  HIS27       0.0820
     13  ND1       18.7340    5.9380   21.3710 N.ar   27  HIS27      -0.2267
     14  CD2       19.2980    5.3120   23.3880 C.ar   27  HIS27       0.1154
     15  CE1       18.2070    6.8110   22.2120 C.ar   27  HIS27       0.1986
     16  NE2       18.5350    6.4540   23.4420 N.ar   27  HIS27      -0.2212
     17  N         26.5870   -8.6640   19.6490 N.3    51  ARG51      -0.1245
     18  CA        25.5270   -7.6570   19.6510 C.3    51  ARG51       0.1563
     19  C         24.9850   -7.3050   18.2550 C.2    51  ARG51       0.2260
     20  O         24.2830   -6.3020   18.0850 O.2    51  ARG51      -0.2867
     21  CB        26.0180   -6.3950   20.3560 C.3    51  ARG51       0.0307
     22  CG        26.2740   -6.6000   21.8470 C.3    51  ARG51       0.0489
     23  CD        26.5880   -5.2910   22.5490 C.3    51  ARG51       0.2205
     24  NE        25.4360   -4.3890   22.6100 N.pl3  51  ARG51      -0.0865
     25  CZ        25.3950   -3.2870   23.3570 C.cat  51  ARG51       0.5346
     26  NH1       26.4390   -2.9610   24.1130 N.pl3  51  ARG51       0.1354
     27  NH2       24.3150   -2.5130   23.3560 N.pl3  51  ARG51       0.1354
     28  N         21.4940    8.2810   22.1940 N.3    93  GLY93      -0.1210
     29  CA        21.9830    8.0540   23.5550 C.3    93  GLY93       0.1956
     30  C         23.2090    7.1730   23.6740 C.2    93  GLY93       0.2612
     31  O         24.2260    7.5970   24.2260 O.2    93  GLY93      -0.2717
     32  N         23.1140    5.9470   23.1660 N.am   94  SER94      -0.1952
     33  CA        24.2010    4.9790   23.2740 C.3    94  SER94       0.1924
     34  C         25.4470    5.4300   22.5360 C.2    94  SER94       0.2314
     35  O         26.5590    5.0700   22.9210 O.2    94  SER94      -0.2863
     36  CB        23.7890    3.6140   22.7180 C.3    94  SER94       0.2116
     37  OG        22.7420    3.0360   23.4680 O.3    94  SER94      -0.2180
     38  N         27.2060    8.2120   24.4830 N.3    97  ALA97      -0.1231
     39  CA        27.8110    7.6000   25.6600 C.3    97  ALA97       0.1694
     40  C         29.0810    6.8160   25.3340 C.2    97  ALA97       0.2592
     41  O         30.1150    7.0180   25.9680 O.2    97  ALA97      -0.2718
     42  CB        26.8040    6.7080   26.3850 C.3    97  ALA97       0.0304
     43  N         29.0020    5.9190   24.3540 N.am   98  TYR98      -0.1976
     44  CA        30.1300    5.0540   24.0220 C.3    98  TYR98       0.1639
     45  C         31.2530    5.8190   23.3390 C.2    98  TYR98       0.2290
     46  O         32.4250    5.4630   23.4630 O.2    98  TYR98      -0.2864
     47  CB        29.6940    3.9140   23.1130 C.3    98  TYR98       0.0560
     48  CG        29.1480    2.7040   23.8270 C.ar   98  TYR98      -0.0198
     49  CD1       27.8030    2.3620   23.7230 C.ar   98  TYR98      -0.0009
     50  CD2       29.9760    1.8880   24.5870 C.ar   98  TYR98      -0.0009
     51  CE1       27.2980    1.2480   24.3580 C.ar   98  TYR98       0.0417
     52  CE2       29.4780    0.7690   25.2280 C.ar   98  TYR98       0.0417
     53  CZ        28.1360    0.4570   25.1090 C.ar   98  TYR98       0.1957
     54  OH        27.6250   -0.6510   25.7430 O.3    98  TYR98      -0.2866
     55  N          7.1080    5.3150   29.9590 N.3   225  ARG225     -0.1245
     56  CA         8.2480    4.4820   30.3000 C.3   225  ARG225      0.1563
     57  C          7.7710    3.2500   31.0360 C.2   225  ARG225      0.2260
     58  O          6.7350    3.2790   31.7120 O.2   225  ARG225     -0.2867
     59  CB         9.2290    5.2520   31.1890 C.3   225  ARG225      0.0307
     60  CG         9.7970    6.4990   30.5490 C.3   225  ARG225      0.0489
     61  CD        10.7020    6.1340   29.3900 C.3   225  ARG225      0.2205
     62  NE        11.6440    7.2050   29.0850 N.pl3 225  ARG225     -0.0865
     63  CZ        11.7570    7.8020   27.9010 C.cat 225  ARG225      0.5346
     64  NH1       10.9930    7.4300   26.8830 N.pl3 225  ARG225      0.1354
     65  NH2       12.6480    8.7700   27.7380 N.pl3 225  ARG225      0.1354
     66  N         15.2080    2.0140   33.0160 N.3   252  ILE252     -0.1231
     67  CA        14.4160    1.9260   31.7920 C.3   252  ILE252      0.1692
     68  C         14.5550    0.5500   31.1610 C.2   252  ILE252      0.2593
     69  O         15.6630    0.1290   30.8220 O.2   252  ILE252     -0.2718
     70  CB        14.7760    3.0210   30.7500 C.3   252  ILE252      0.0266
     71  CG1       13.8220    2.9270   29.5620 C.3   252  ILE252      0.0019
     72  CG2       16.2260    2.8960   30.2800 C.3   252  ILE252      0.0020
     73  CD1       12.3880    3.2320   29.9430 C.3   252  ILE252      0.0001
     74  N         13.4360   -0.1630   31.0280 N.am  253  THR253     -0.1939
     75  CA        13.4660   -1.4760   30.3860 C.3   253  THR253      0.2028
     76  C         12.6820   -1.5300   29.0720 C.2   253  THR253      0.2643
     77  O         12.8690   -2.4470   28.2800 O.2   253  THR253     -0.2714
     78  CB        12.9590   -2.6230   31.3020 C.3   253  THR253      0.1808
     79  OG1       11.5440   -2.5010   31.5190 O.3   253  THR253     -0.2208
     80  CG2       13.6990   -2.6440   32.6310 C.3   253  THR253      0.0379
     81  N         11.8050   -0.5620   28.8440 N.am  254  GLY254     -0.1939
     82  CA        10.9310   -0.6170   27.6820 C.3   254  GLY254      0.2014
     83  C          9.9610    0.5390   27.6390 C.2   254  GLY254      0.2638
     84  O         10.0460    1.4560   28.4540 O.2   254  GLY254     -0.2714
     85  N          9.0470    0.4990   26.6710 N.am  255  ASN255     -0.1972
     86  CA         8.0750    1.5620   26.4810 C.3   255  ASN255      0.1688
     87  C          6.7280    1.0280   26.0390 C.2   255  ASN255      0.2292
     88  O          6.6240   -0.0420   25.4320 O.2   255  ASN255     -0.2864
     89  CB         8.5820    2.6040   25.4630 C.3   255  ASN255      0.1181
     90  CG        10.0620    2.9190   25.6250 C.2   255  ASN255      0.2629
     91  OD1       10.4350    3.9780   26.1420 O.2   255  ASN255     -0.2716
     92  ND2       10.9130    2.0050   25.1820 N.am  255  ASN255     -0.0877
     93  N         18.2140   14.9610   21.1300 N.3   311  ARG311     -0.1245
     94  CA        18.2790   14.0870   19.9760 C.3   311  ARG311      0.1563
     95  C         17.1800   13.0360   20.0980 C.2   311  ARG311      0.2260
     96  O         16.2210   13.2260   20.8410 O.2   311  ARG311     -0.2867
     97  CB        19.6620   13.4540   19.8400 C.3   311  ARG311      0.0307
     98  CG        20.3570   13.1920   21.1540 C.3   311  ARG311      0.0489
     99  CD        19.7170   12.0530   21.8970 C.3   311  ARG311      0.2205
    100  NE        20.2990   11.9070   23.2210 N.pl3 311  ARG311     -0.0865
    101  CZ        19.9910   10.9330   24.0680 C.cat 311  ARG311      0.5346
    102  NH1       20.5770   10.8850   25.2590 N.pl3 311  ARG311      0.1354
    103  NH2       19.1040   10.0070   23.7210 N.pl3 311  ARG311      0.1354
    104  N         15.0330   10.0480   21.2460 N.3   313  ASP313     -0.1225
    105  CA        14.8080    9.3740   22.5150 C.3   313  ASP313      0.1805
    106  C         14.4000    7.9180   22.3030 C.2   313  ASP313      0.2598
    107  O         13.6380    7.6030   21.3820 O.2   313  ASP313     -0.2718
    108  CB        13.7280   10.1260   23.3090 C.3   313  ASP313      0.1424
    109  CG        13.3810    9.4390   24.6290 C.2   313  ASP313      0.3668
    110  OD1       13.9450    9.8350   25.6730 O.co2 313  ASP313     -0.2456
    111  OD2       12.5590    8.4970   24.6240 O.co2 313  ASP313     -0.2456
    112  N         14.8970    7.0380   23.1680 N.am  314  GLY314     -0.1942
    113  CA        14.5860    5.6090   23.0980 C.3   314  GLY314      0.2014
    114  C         13.1120    5.2770   22.9470 C.2   314  GLY314      0.2639
    115  O         12.7560    4.2500   22.3830 O.2   314  GLY314     -0.2714
    116  N         12.2450    6.1400   23.4620 N.am  315  GLY315     -0.1954
    117  CA        10.8140    5.8880   23.3970 C.3   315  GLY315      0.1869
    118  C         10.2390    5.8170   21.9870 C.2   315  GLY315      0.2309
    119  O          9.1260    5.3130   21.8020 O.2   315  GLY315     -0.2863
    120  N         11.0710    3.9110   19.7900 N.3   317  ASN317     -0.1240
    121  CA        10.9520    2.4960   19.4650 C.3   317  ASN317      0.1653
    122  C          9.5140    1.9810   19.5520 C.2   317  ASN317      0.2266
    123  O          9.1500    1.0310   18.8700 O.2   317  ASN317     -0.2867
    124  CB        11.8900    1.6580   20.3410 C.3   317  ASN317      0.1155
    125  CG        13.3520    1.9990   20.1120 C.2   317  ASN317      0.2627
    126  OD1       13.7080    2.5650   19.0790 O.2   317  ASN317     -0.2716
    127  ND2       14.2050    1.6620   21.0760 N.am  317  ASN317     -0.0877
@<TRIPOS>BOND
     1    20    19    2
     2    19    18    1
     3     1     2    1
     4   123   122    2
     5     4     3    2
     6   126   125    2
     7   121   122    1
     8   121   120    1
     9   121   124    1
    10    17    18    1
    11    18    21    1
    12     2     3    1
    13     2     5    1
    14    97    94    1
    15    97    98    1
    16     3     7   am
    17    94    95    1
    18    94    93    1
    19    95    96    2
    20   125   124    1
    21   125   127   am
    22    21    22    1
    23     9    10    2
    24     9     8    1
    25     5     6    1
    26     7     8    1
    27    98    99    1
    28   104   105    1
    29    13    12   ar
    30    13    15   ar
    31   107   106    2
    32    11     8    1
    33    11    12    1
    34   119   118    2
    35    22    23    1
    36    99   100    1
    37   118   117    1
    38    12    14   ar
    39    28    29    1
    40    15    16   ar
    41   106   105    1
    42   106   112   am
    43   115   114    2
    44   105   108    1
    45    34    35    2
    46    34    33    1
    47    23    24    1
    48    24    25    2
    49    36    33    1
    50    36    37    1
    51   114   113    1
    52   114   116   am
    53   113   112    1
    54    47    48    1
    55    47    44    1
    56    32    33    1
    57    32    30   am
    58   100   101    2
    59   108   109    1
    60    45    46    2
    61    45    44    1
    62    27    25    1
    63    25    26    1
    64    14    16   ar
    65   117   116    1
    66    29    30    1
    67    30    31    2
    68   103   101    1
    69    49    48   ar
    70    49    51   ar
    71    48    50   ar
    72    44    43    1
    73   101   102    1
    74    43    40   am
    75    51    53   ar
    76    38    39    1
    77    50    52   ar
    78   111   109   ar
    79   109   110   ar
    80    53    52   ar
    81    53    54    1
    82    92    90   am
    83    40    39    1
    84    40    41    2
    85    88    87    2
    86    89    90    1
    87    89    86    1
    88    90    91    2
    89    39    42    1
    90    87    86    1
    91    86    85    1
    92    85    83   am
    93    64    63    1
    94    83    82    1
    95    83    84    2
    96    82    81    1
    97    65    63    1
    98    63    62    2
    99    77    76    2
   100    81    76   am
   101    76    75    1
   102    62    61    1
   103    61    60    1
   104    71    73    1
   105    71    70    1
   106    55    56    1
   107    72    70    1
   108    56    57    1
   109    56    59    1
   110    75    74    1
   111    75    78    1
   112    60    59    1
   113    70    67    1
   114    69    68    2
   115    74    68   am
   116    57    58    2
   117    68    67    1
   118    78    79    1
   119    78    80    1
   120    67    66    1
