@<TRIPOS>MOLECULE
tmp/2r7lA00.pdb
 188 177 0 0 0
SMALL
GASTEIGER

@<TRIPOS>ATOM
      1  N         22.4620   19.1820   33.8370 N.3   125  ARG125     -0.1245
      2  CA        21.2020   19.5110   34.4950 C.3   125  ARG125      0.1563
      3  C         20.9290   21.0160   34.5740 C.2   125  ARG125      0.2260
      4  O         19.7820   21.4550   34.4580 O.2   125  ARG125     -0.2867
      5  CB        21.1830   18.8880   35.8940 C.3   125  ARG125      0.0307
      6  CG        19.8340   18.9340   36.5910 C.3   125  ARG125      0.0489
      7  CD        19.8860   18.2530   37.9560 C.3   125  ARG125      0.2205
      8  NE        20.0840   16.8040   37.8690 N.pl3 125  ARG125     -0.0865
      9  CZ        19.1220   15.9220   37.5980 C.cat 125  ARG125      0.5346
     10  NH1       17.8780   16.3320   37.3670 N.pl3 125  ARG125      0.1354
     11  NH2       19.4050   14.6240   37.5510 N.pl3 125  ARG125      0.1354
     12  N          9.3540   20.4980   37.7360 N.3   140  PRO140     -0.2116
     13  CA         9.2240   20.2100   39.1700 C.3   140  PRO140      0.1372
     14  C         10.0210   21.2160   40.0100 C.2   140  PRO140      0.2244
     15  O         11.1010   21.6410   39.5920 O.2   140  PRO140     -0.2868
     16  CB         9.8520   18.8180   39.3100 C.3   140  PRO140      0.0268
     17  CG         9.8850   18.2500   37.9110 C.3   140  PRO140      0.0207
     18  CD        10.0750   19.4320   37.0220 C.3   140  PRO140      0.0892
     19  N         11.3490   13.3350   44.9620 N.3   154  ILE154     -0.1245
     20  CA        12.1590   12.2500   44.4330 C.3   154  ILE154      0.1561
     21  C         13.6100   12.7090   44.4620 C.2   154  ILE154      0.2260
     22  O         13.9060   13.8820   44.2200 O.2   154  ILE154     -0.2867
     23  CB        11.7190   11.8280   42.9990 C.3   154  ILE154      0.0252
     24  CG1       12.5300   10.6230   42.5070 C.3   154  ILE154      0.0019
     25  CG2       11.8310   12.9930   42.0400 C.3   154  ILE154      0.0019
     26  CD1       11.9230    9.9200   41.2940 C.3   154  ILE154      0.0001
     27  N         17.4700   12.0990   43.0600 N.3   156  LYS156     -0.1245
     28  CA        18.2420   11.5180   41.9660 C.3   156  LYS156      0.1561
     29  C         19.7490   11.6970   42.1660 C.2   156  LYS156      0.2260
     30  O         20.1900   12.6360   42.8300 O.2   156  LYS156     -0.2867
     31  CB        17.8150   12.1550   40.6410 C.3   156  LYS156      0.0271
     32  CG        16.3290   12.0430   40.3540 C.3   156  LYS156      0.0035
     33  CD        15.9390   12.8600   39.1360 C.3   156  LYS156      0.0206
     34  CE        14.4970   12.5830   38.7380 C.3   156  LYS156      0.1093
     35  NZ        13.9880   13.5260   37.6940 N.3   156  LYS156     -0.1314
     36  N         17.4970    3.7900   39.7680 N.3   158  ARG158     -0.1245
     37  CA        18.6530    2.9480   40.0970 C.3   158  ARG158      0.1563
     38  C         19.0900    3.1280   41.5600 C.2   158  ARG158      0.2260
     39  O         19.0420    2.1870   42.3560 O.2   158  ARG158     -0.2867
     40  CB        19.8120    3.2340   39.1450 C.3   158  ARG158      0.0307
     41  CG        19.4140    3.1610   37.7000 C.3   158  ARG158      0.0489
     42  CD        20.6210    2.9680   36.8310 C.3   158  ARG158      0.2205
     43  NE        20.2170    2.7940   35.4510 N.pl3 158  ARG158     -0.0865
     44  CZ        20.0390    3.8030   34.6220 C.cat 158  ARG158      0.5346
     45  NH1       20.2480    5.0440   35.0480 N.pl3 158  ARG158      0.1354
     46  NH2       19.6600    3.5710   33.3780 N.pl3 158  ARG158      0.1354
     47  N         17.7210    5.8720   43.0870 N.3   160  TYR160     -0.1241
     48  CA        16.6760    6.8370   43.4180 C.3   160  TYR160      0.1605
     49  C         15.9040    6.4600   44.6830 C.2   160  TYR160      0.2264
     50  O         15.8710    5.2940   45.0830 O.2   160  TYR160     -0.2867
     51  CB        15.6920    6.9560   42.2460 C.3   160  TYR160      0.0534
     52  CG        16.2540    7.6140   40.9980 C.ar  160  TYR160     -0.0201
     53  CD1       17.6140    7.5560   40.7030 C.ar  160  TYR160     -0.0009
     54  CD2       15.4200    8.2720   40.1030 C.ar  160  TYR160     -0.0009
     55  CE1       18.1300    8.1540   39.5630 C.ar  160  TYR160      0.0417
     56  CE2       15.9240    8.8710   38.9560 C.ar  160  TYR160      0.0417
     57  CZ        17.2800    8.8080   38.6910 C.ar  160  TYR160      0.1957
     58  OH        17.7920    9.4010   37.5560 O.3   160  TYR160     -0.2866
     59  N         13.9340   16.9420   43.9760 N.3   193  GLU193     -0.1231
     60  CA        12.8620   17.7100   43.3480 C.3   193  GLU193      0.1699
     61  C         11.4790   17.1950   43.7020 C.2   193  GLU193      0.2592
     62  O         11.3010   16.0470   44.1090 O.2   193  GLU193     -0.2718
     63  CB        13.0270   17.7600   41.8170 C.3   193  GLU193      0.0402
     64  CG        13.0430   16.3900   41.1380 C.3   193  GLU193      0.1161
     65  CD        13.0610   16.4810   39.6140 C.2   193  GLU193      0.3649
     66  OE1       13.6050   17.4680   39.0730 O.co2 193  GLU193     -0.2457
     67  OE2       12.5310   15.5600   38.9550 O.co2 193  GLU193     -0.2457
     68  N         10.5010   18.0690   43.5280 N.am  194  GLU194     -0.1966
     69  CA         9.1110   17.7310   43.7360 C.3   194  GLU194      0.1733
     70  C          8.7330   16.4280   43.0320 C.2   194  GLU194      0.2616
     71  O          8.9720   16.2650   41.8380 O.2   194  GLU194     -0.2715
     72  CB         8.2460   18.8720   43.2100 C.3   194  GLU194      0.0429
     73  CG         6.7700   18.5650   43.1610 C.3   194  GLU194      0.1163
     74  CD         5.9840   19.6740   42.5120 C.2   194  GLU194      0.3649
     75  OE1        6.6090   20.5670   41.8940 O.co2 194  GLU194     -0.2457
     76  OE2        4.7420   19.6590   42.6280 O.co2 194  GLU194     -0.2457
     77  N          8.1570   15.4920   43.7760 N.am  195  TYR195     -0.1960
     78  CA         7.5920   14.3050   43.1600 C.3   195  TYR195      0.1771
     79  C          6.2850   14.7350   42.5020 C.2   195  TYR195      0.2619
     80  O          5.3460   15.1420   43.1930 O.2   195  TYR195     -0.2715
     81  CB         7.3400   13.2060   44.1980 C.3   195  TYR195      0.0574
     82  CG         7.0220   11.8700   43.5680 C.ar  195  TYR195     -0.0198
     83  CD1        8.0020   10.8950   43.4390 C.ar  195  TYR195     -0.0009
     84  CD2        5.7480   11.5920   43.0770 C.ar  195  TYR195     -0.0009
     85  CE1        7.7250    9.6700   42.8530 C.ar  195  TYR195      0.0417
     86  CE2        5.4550   10.3660   42.4880 C.ar  195  TYR195      0.0417
     87  CZ         6.4520    9.4140   42.3750 C.ar  195  TYR195      0.1957
     88  OH         6.1830    8.1970   41.7940 O.3   195  TYR195     -0.2866
     89  N          6.2330   14.6900   41.1690 N.am  196  VAL196     -0.1977
     90  CA         5.0060   15.0530   40.4630 C.3   196  VAL196      0.1596
     91  C          4.1320   13.8190   40.3170 C.2   196  VAL196      0.2287
     92  O          4.5920   12.7760   39.8590 O.2   196  VAL196     -0.2864
     93  CB         5.2870   15.6730   39.0760 C.3   196  VAL196      0.0276
     94  CG1        3.9780   15.8990   38.3190 C.3   196  VAL196      0.0022
     95  CG2        6.0640   16.9950   39.2240 C.3   196  VAL196      0.0022
     96  N          2.5470    9.6940   32.7780 N.3   200  ASN200     -0.1240
     97  CA         3.7260    9.8990   31.9460 C.3   200  ASN200      0.1653
     98  C          3.4300    9.9760   30.4440 C.2   200  ASN200      0.2266
     99  O          2.8170    9.0730   29.8580 O.2   200  ASN200     -0.2867
    100  CB         4.7390    8.7870   32.1970 C.3   200  ASN200      0.1155
    101  CG         6.0400    8.9910   31.4350 C.2   200  ASN200      0.2627
    102  OD1        6.6680    8.0250   31.0210 O.2   200  ASN200     -0.2716
    103  ND2        6.4550   10.2460   31.2620 N.am  200  ASN200     -0.0877
    104  N          7.0420    5.2990   29.9540 N.3   222  ARG222     -0.1245
    105  CA         8.1650    4.4440   30.3080 C.3   222  ARG222      0.1563
    106  C          7.6930    3.1820   31.0020 C.2   222  ARG222      0.2260
    107  O          6.6590    3.1810   31.6730 O.2   222  ARG222     -0.2867
    108  CB         9.1330    5.1760   31.2370 C.3   222  ARG222      0.0307
    109  CG         9.6640    6.4840   30.7000 C.3   222  ARG222      0.0489
    110  CD        10.3730    6.2710   29.3810 C.3   222  ARG222      0.2205
    111  NE        11.4570    7.2250   29.1960 N.pl3 222  ARG222     -0.0865
    112  CZ        11.8450    7.7000   28.0180 C.cat 222  ARG222      0.5346
    113  NH1       11.2300    7.3170   26.9070 N.pl3 222  ARG222      0.1354
    114  NH2       12.8480    8.5660   27.9530 N.pl3 222  ARG222      0.1354
    115  N          9.5340    0.7990   33.5400 N.3   224  GLU224     -0.1245
    116  CA        10.7540    0.8250   34.3430 C.3   224  GLU224      0.1567
    117  C         10.7890   -0.2780   35.4100 C.2   224  GLU224      0.2260
    118  O          9.7610   -0.6490   35.9640 O.2   224  GLU224     -0.2867
    119  CB        10.9250    2.2180   34.9610 C.3   224  GLU224      0.0388
    120  CG        11.2330    3.2880   33.9160 C.3   224  GLU224      0.1160
    121  CD        10.9460    4.7010   34.3760 C.2   224  GLU224      0.3649
    122  OE1       10.1420    4.8830   35.3190 O.co2 224  GLU224     -0.2457
    123  OE2       11.5220    5.6360   33.7750 O.co2 224  GLU224     -0.2457
    124  N         14.3910    2.6980   39.0900 N.3   247  TYR247     -0.1241
    125  CA        13.7360    3.2680   37.9170 C.3   247  TYR247      0.1605
    126  C         14.5680    3.0480   36.6530 C.2   247  TYR247      0.2264
    127  O         14.7820    3.9650   35.8670 O.2   247  TYR247     -0.2867
    128  CB        13.4620    4.7570   38.1570 C.3   247  TYR247      0.0534
    129  CG        12.5060    5.0000   39.3080 C.ar  247  TYR247     -0.0201
    130  CD1       11.1750    5.3260   39.0710 C.ar  247  TYR247     -0.0009
    131  CD2       12.9290    4.8840   40.6330 C.ar  247  TYR247     -0.0009
    132  CE1       10.2940    5.5410   40.1140 C.ar  247  TYR247      0.0417
    133  CE2       12.0460    5.0920   41.6900 C.ar  247  TYR247      0.0417
    134  CZ        10.7340    5.4220   41.4210 C.ar  247  TYR247      0.1957
    135  OH         9.8500    5.6310   42.4530 O.3   247  TYR247     -0.2866
    136  N         15.1980    2.0710   33.0260 N.3   249  ILE249     -0.1245
    137  CA        14.4050    1.9590   31.7960 C.3   249  ILE249      0.1561
    138  C         14.5450    0.5770   31.1770 C.2   249  ILE249      0.2260
    139  O         15.6590    0.1180   30.9000 O.2   249  ILE249     -0.2867
    140  CB        14.7480    3.0490   30.7380 C.3   249  ILE249      0.0252
    141  CG1       13.6840    3.0710   29.6400 C.3   249  ILE249      0.0019
    142  CG2       16.1310    2.8230   30.1250 C.3   249  ILE249      0.0019
    143  CD1       12.2930    3.4170   30.1490 C.3   249  ILE249      0.0001
    144  N         10.0130   14.8220   28.2750 N.3   291  GLN291     -0.1245
    145  CA         9.5510   13.7560   29.1620 C.3   291  GLN291      0.1566
    146  C          8.7570   14.3760   30.2970 C.2   291  GLN291      0.2260
    147  O          9.3100   15.0450   31.1620 O.2   291  GLN291     -0.2867
    148  CB        10.7340   12.9690   29.7070 C.3   291  GLN291      0.0367
    149  CG        11.5460   12.2970   28.6250 C.3   291  GLN291      0.0905
    150  CD        12.9670   12.0510   29.0410 C.2   291  GLN291      0.2608
    151  OE1       13.8820   12.7300   28.5780 O.2   291  GLN291     -0.2717
    152  NE2       13.1690   11.0810   29.9300 N.am  291  GLN291     -0.0878
    153  N          5.0030   14.7450   32.9800 N.3   293  LEU293     -0.1245
    154  CA         3.9760   14.1210   33.7890 C.3   293  LEU293      0.1561
    155  C          2.7800   15.0450   33.8060 C.2   293  LEU293      0.2260
    156  O          2.9160   16.2420   34.0280 O.2   293  LEU293     -0.2867
    157  CB         4.4780   13.8480   35.2110 C.3   293  LEU293      0.0270
    158  CG         5.5310   12.7410   35.3280 C.3   293  LEU293      0.0019
    159  CD1        6.3410   12.8580   36.6240 C.3   293  LEU293      0.0001
    160  CD2        4.8840   11.3690   35.2120 C.3   293  LEU293      0.0001
    161  N         10.1040   16.8040   33.4520 N.3   303  PHE303     -0.1227
    162  CA        11.1340   16.4630   34.4050 C.3   303  PHE303      0.1736
    163  C         12.4240   16.1040   33.6930 C.2   303  PHE303      0.2595
    164  O         13.4750   15.9730   34.3200 O.2   303  PHE303     -0.2718
    165  CB        10.6690   15.3010   35.2830 C.3   303  PHE303      0.0547
    166  CG        10.3980   14.0250   34.5240 C.ar  303  PHE303     -0.0202
    167  CD1       11.4310   13.1480   34.2300 C.ar  303  PHE303     -0.0042
    168  CD2        9.1050   13.6910   34.1350 C.ar  303  PHE303     -0.0042
    169  CE1       11.1910   11.9600   33.5460 C.ar  303  PHE303     -0.0003
    170  CE2        8.8520   12.5010   33.4520 C.ar  303  PHE303     -0.0003
    171  CZ         9.8980   11.6360   33.1590 C.ar  303  PHE303     -0.0000
    172  N         12.3370   15.9310   32.3780 N.am  304  GLU304     -0.1979
    173  CA        13.5130   15.6400   31.5670 C.3   304  GLU304      0.1602
    174  C         13.2900   16.0050   30.1020 C.2   304  GLU304      0.2287
    175  O         12.1660   16.2920   29.6850 O.2   304  GLU304     -0.2864
    176  CB        13.9200   14.1710   31.6950 C.3   304  GLU304      0.0415
    177  CG        15.0150   13.9140   32.7190 C.3   304  GLU304      0.1163
    178  CD        16.3320   14.6000   32.3710 C.2   304  GLU304      0.3649
    179  OE1       17.1980   14.7120   33.2640 O.co2 304  GLU304     -0.2457
    180  OE2       16.5090   15.0230   31.2090 O.co2 304  GLU304     -0.2457
    181  N         15.0540   10.2540   21.3250 N.3   310  ASP310     -0.1239
    182  CA        14.8250    9.5410   22.5810 C.3   310  ASP310      0.1674
    183  C         14.4510    8.0750   22.3400 C.2   310  ASP310      0.2266
    184  O         13.7810    7.7440   21.3550 O.2   310  ASP310     -0.2867
    185  CB        13.7280   10.2430   23.3920 C.3   310  ASP310      0.1410
    186  CG        13.3850    9.5040   24.6840 C.2   310  ASP310      0.3668
    187  OD1       13.9270    9.8800   25.7440 O.co2 310  ASP310     -0.2456
    188  OD2       12.5870    8.5420   24.6390 O.co2 310  ASP310     -0.2456
@<TRIPOS>BOND
     1   181   182    1
     2   184   183    2
     3   183   182    1
     4   182   185    1
     5   185   186    1
     6   188   186   ar
     7   186   187   ar
     8   113   112    1
     9   114   112    1
    10   112   111    2
    11   144   145    1
    12   151   150    2
    13   149   150    1
    14   149   148    1
    15   150   152   am
    16   145   148    1
    17   145   146    1
    18   111   110    1
    19   110   109    1
    20   141   143    1
    21   141   140    1
    22   175   174    2
    23    99    98    2
    24   104   105    1
    25   174   173    1
    26   142   140    1
    27   146   147    2
    28   105   106    1
    29   105   108    1
    30    98    97    1
    31   109   108    1
    32   140   137    1
    33   139   138    2
    34   106   107    2
    35   102   101    2
    36   138   137    1
    37   180   178   ar
    38   103   101   am
    39   101   100    1
    40   173   176    1
    41   173   172    1
    42   176   177    1
    43   137   136    1
    44    97   100    1
    45    97    96    1
    46   178   177    1
    47   178   179   ar
    48   172   163   am
    49   153   154    1
    50   171   170   ar
    51   171   169   ar
    52    46    44    1
    53   161   162    1
    54   170   168   ar
    55   115   116    1
    56   169   167   ar
    57   163   164    2
    58   163   162    1
    59   123   121   ar
    60   154   155    1
    61   154   157    1
    62   155   156    2
    63     1     2    1
    64   120   121    1
    65   120   119    1
    66   168   166   ar
    67   167   166   ar
    68   116   119    1
    69   116   117    1
    70   121   122   ar
    71   162   165    1
    72     4     3    2
    73     2     3    1
    74     2     5    1
    75   166   165    1
    76    44    45    1
    77    44    43    2
    78   157   158    1
    79   160   158    1
    80   158   159    1
    81   117   118    2
    82    43    42    1
    83   127   126    2
    84     5     6    1
    85     6     7    1
    86   126   125    1
    87    42    41    1
    88    18    12    1
    89    18    17    1
    90    10     9    1
    91    11     9    1
    92    58    57    1
    93     9     8    2
    94    35    34    1
    95    41    40    1
    96    12    13    1
    97     8     7    1
    98    17    16    1
    99   125   128    1
   100   125   124    1
   101   128   129    1
   102    94    93    1
   103    57    56   ar
   104    57    55   ar
   105    34    33    1
   106    67    65   ar
   107    56    54   ar
   108   130   129   ar
   109   130   132   ar
   110    66    65   ar
   111    93    95    1
   112    93    90    1
   113    33    32    1
   114    40    37    1
   115    13    16    1
   116    13    14    1
   117   129   131   ar
   118    55    53   ar
   119    15    14    2
   120    65    64    1
   121    36    37    1
   122    92    91    2
   123    37    38    1
   124    54    52   ar
   125   132   134   ar
   126    91    90    1
   127    32    31    1
   128    90    89    1
   129   131   133   ar
   130    31    28    1
   131    53    52   ar
   132    52    51    1
   133    64    63    1
   134    89    79   am
   135    26    24    1
   136   134   133   ar
   137   134   135    1
   138    38    39    2
   139    88    87    1
   140    63    60    1
   141    71    70    2
   142    75    74   ar
   143    28    29    1
   144    28    27    1
   145    25    23    1
   146    29    30    2
   147    51    48    1
   148    87    86   ar
   149    87    85   ar
   150    86    84   ar
   151    79    78    1
   152    79    80    2
   153    24    23    1
   154    74    76   ar
   155    74    73    1
   156    85    83   ar
   157    23    20    1
   158    70    69    1
   159    70    77   am
   160    84    82   ar
   161    47    48    1
   162    78    77    1
   163    78    81    1
   164    73    72    1
   165    72    69    1
   166    60    61    1
   167    60    59    1
   168    48    49    1
   169    83    82   ar
   170    68    61   am
   171    68    69    1
   172    82    81    1
   173    61    62    2
   174    22    21    2
   175    20    21    1
   176    20    19    1
   177    49    50    2
