@<TRIPOS>MOLECULE
tmp/2r7mA01.pdb
 123 116 0 0 0
SMALL
GASTEIGER

@<TRIPOS>ATOM
      1  N         22.4780    0.1990   18.3780 N.3    26  SER26      -0.1202
      2  CA        21.8900    0.1740   19.7090 C.3    26  SER26       0.2020
      3  C         20.9110    1.3220   19.8680 C.2    26  SER26       0.2618
      4  O         20.7570    2.1510   18.9750 O.2    26  SER26      -0.2717
      5  CB        22.9800    0.2750   20.7850 C.3    26  SER26       0.2103
      6  OG        22.4190    0.2660   22.0880 O.3    26  SER26      -0.2182
      7  N         20.2460    1.3650   21.0180 N.am   27  HIS27      -0.1975
      8  CA        19.3810    2.4900   21.3890 C.3    27  HIS27       0.1656
      9  C         18.0940    2.6410   20.5590 C.2    27  HIS27       0.2291
     10  O         17.0070    2.2980   21.0230 O.2    27  HIS27      -0.2864
     11  CB        20.1750    3.7970   21.3900 C.3    27  HIS27       0.0771
     12  CG        19.4830    4.9210   22.0950 C.ar   27  HIS27       0.0820
     13  ND1       18.7990    5.9110   21.4220 N.ar   27  HIS27      -0.2267
     14  CD2       19.3660    5.2120   23.4160 C.ar   27  HIS27       0.1154
     15  CE1       18.2930    6.7670   22.2930 C.ar   27  HIS27       0.1986
     16  NE2       18.6220    6.3660   23.5100 N.ar   27  HIS27      -0.2212
     17  N         26.6620   -8.6890   19.7090 N.3    51  ARG51      -0.1245
     18  CA        25.6630   -7.6280   19.7290 C.3    51  ARG51       0.1563
     19  C         25.1240   -7.2740   18.3360 C.2    51  ARG51       0.2260
     20  O         24.4730   -6.2360   18.1580 O.2    51  ARG51      -0.2867
     21  CB        26.2480   -6.3780   20.3810 C.3    51  ARG51       0.0307
     22  CG        26.5080   -6.5320   21.8760 C.3    51  ARG51       0.0489
     23  CD        26.7070   -5.1850   22.5330 C.3    51  ARG51       0.2205
     24  NE        25.4760   -4.4010   22.5940 N.pl3  51  ARG51      -0.0865
     25  CZ        25.3430   -3.2740   23.2900 C.cat  51  ARG51       0.5346
     26  NH1       26.3680   -2.7990   23.9880 N.pl3  51  ARG51       0.1354
     27  NH2       24.1880   -2.6200   23.2900 N.pl3  51  ARG51       0.1354
     28  N         21.3950    8.2800   22.1530 N.3    93  GLY93      -0.1210
     29  CA        21.8570    8.0570   23.5190 C.3    93  GLY93       0.1956
     30  C         23.0990    7.1980   23.6690 C.2    93  GLY93       0.2612
     31  O         24.0670    7.6110   24.3050 O.2    93  GLY93      -0.2717
     32  N         23.0640    5.9980   23.0920 N.am   94  SER94      -0.1952
     33  CA        24.1590    5.0360   23.2220 C.3    94  SER94       0.1924
     34  C         25.4350    5.4820   22.5240 C.2    94  SER94       0.2314
     35  O         26.5380    5.2150   23.0070 O.2    94  SER94      -0.2863
     36  CB        23.7520    3.6720   22.6660 C.3    94  SER94       0.2116
     37  OG        23.0280    2.9220   23.6170 O.3    94  SER94      -0.2180
     38  N         27.3070    8.0720   24.5890 N.3    97  ALA97      -0.1231
     39  CA        27.9320    7.4620   25.7580 C.3    97  ALA97       0.1694
     40  C         29.2040    6.6790   25.4160 C.2    97  ALA97       0.2592
     41  O         30.2470    6.8700   26.0450 O.2    97  ALA97      -0.2718
     42  CB        26.9330    6.5710   26.4960 C.3    97  ALA97       0.0304
     43  N         29.1160    5.7930   24.4280 N.am   98  TYR98      -0.1976
     44  CA        30.2530    4.9530   24.0570 C.3    98  TYR98       0.1639
     45  C         31.3660    5.7490   23.3840 C.2    98  TYR98       0.2290
     46  O         32.5430    5.3870   23.4680 O.2    98  TYR98      -0.2864
     47  CB        29.8130    3.8310   23.1270 C.3    98  TYR98       0.0560
     48  CG        29.1980    2.6420   23.8200 C.ar   98  TYR98      -0.0198
     49  CD1       27.8550    2.3300   23.6370 C.ar   98  TYR98      -0.0009
     50  CD2       29.9580    1.8180   24.6420 C.ar   98  TYR98      -0.0009
     51  CE1       27.2840    1.2350   24.2530 C.ar   98  TYR98       0.0417
     52  CE2       29.3950    0.7180   25.2650 C.ar   98  TYR98       0.0417
     53  CZ        28.0530    0.4340   25.0680 C.ar   98  TYR98       0.1957
     54  OH        27.4750   -0.6560   25.6800 O.3    98  TYR98      -0.2866
     55  N          7.2100    5.3240   29.8900 N.3   222  ARG222     -0.1245
     56  CA         8.2910    4.4410   30.2960 C.3   222  ARG222      0.1563
     57  C          7.7880    3.1960   31.0070 C.2   222  ARG222      0.2260
     58  O          6.7370    3.2060   31.6600 O.2   222  ARG222     -0.2867
     59  CB         9.2630    5.1720   31.2300 C.3   222  ARG222      0.0307
     60  CG         9.7500    6.5040   30.7170 C.3   222  ARG222      0.0489
     61  CD        10.4570    6.3380   29.3880 C.3   222  ARG222      0.2205
     62  NE        11.3820    7.4370   29.1260 N.pl3 222  ARG222     -0.0865
     63  CZ        11.5960    7.9730   27.9260 C.cat 222  ARG222      0.5346
     64  NH1       10.9380    7.5280   26.8650 N.pl3 222  ARG222      0.1354
     65  NH2       12.4580    8.9710   27.7910 N.pl3 222  ARG222      0.1354
     66  N         15.1640    2.0230   33.0630 N.3   249  ILE249     -0.1231
     67  CA        14.4160    1.8940   31.8130 C.3   249  ILE249      0.1692
     68  C         14.5900    0.5060   31.2090 C.2   249  ILE249      0.2593
     69  O         15.7130    0.0570   30.9690 O.2   249  ILE249     -0.2718
     70  CB        14.7910    2.9870   30.7640 C.3   249  ILE249      0.0266
     71  CG1       13.7540    3.0090   29.6410 C.3   249  ILE249      0.0019
     72  CG2       16.1740    2.7570   30.1890 C.3   249  ILE249      0.0020
     73  CD1       12.3800    3.4380   30.1110 C.3   249  ILE249      0.0001
     74  N         13.4740   -0.1850   30.9870 N.am  250  THR250     -0.1939
     75  CA        13.5300   -1.5060   30.3720 C.3   250  THR250      0.2028
     76  C         12.7340   -1.5580   29.0720 C.2   250  THR250      0.2643
     77  O         12.8520   -2.5070   28.3070 O.2   250  THR250     -0.2714
     78  CB        13.0000   -2.6200   31.3100 C.3   250  THR250      0.1808
     79  OG1       11.5880   -2.4650   31.5170 O.3   250  THR250     -0.2208
     80  CG2       13.7210   -2.6000   32.6390 C.3   250  THR250      0.0379
     81  N         11.9080   -0.5510   28.8300 N.am  251  GLY251     -0.1939
     82  CA        11.0340   -0.5990   27.6660 C.3   251  GLY251      0.2014
     83  C         10.0090    0.5050   27.6590 C.2   251  GLY251      0.2638
     84  O         10.0560    1.4100   28.4940 O.2   251  GLY251     -0.2714
     85  N          9.0790    0.4310   26.7080 N.am  252  ASN252     -0.1972
     86  CA         8.1070    1.4970   26.5060 C.3   252  ASN252      0.1688
     87  C          6.7390    1.0090   26.0660 C.2   252  ASN252      0.2292
     88  O          6.5820   -0.0690   25.4970 O.2   252  ASN252     -0.2864
     89  CB         8.6250    2.5360   25.4940 C.3   252  ASN252      0.1181
     90  CG        10.1240    2.7600   25.5970 C.2   252  ASN252      0.2629
     91  OD1       10.9210    1.8960   25.2170 O.2   252  ASN252     -0.2716
     92  ND2       10.5160    3.9270   26.0910 N.am  252  ASN252     -0.0877
     93  N         18.2400   14.8730   21.1970 N.3   308  ARG308     -0.1245
     94  CA        18.2950   14.0400   20.0080 C.3   308  ARG308      0.1563
     95  C         17.1830   13.0020   20.0900 C.2   308  ARG308      0.2260
     96  O         16.2410   13.1660   20.8620 O.2   308  ARG308     -0.2867
     97  CB        19.6740   13.3900   19.8430 C.3   308  ARG308      0.0307
     98  CG        20.3730   13.0600   21.1410 C.3   308  ARG308      0.0489
     99  CD        19.6050   12.0420   21.9380 C.3   308  ARG308      0.2205
    100  NE        20.2530   11.7760   23.2130 N.pl3 308  ARG308     -0.0865
    101  CZ        19.8530   10.8470   24.0720 C.cat 308  ARG308      0.5346
    102  NH1       20.5080   10.6800   25.2130 N.pl3 308  ARG308      0.1354
    103  NH2       18.8030   10.0830   23.7910 N.pl3 308  ARG308      0.1354
    104  N         15.0410    9.9510   21.1640 N.3   310  ASP310     -0.1225
    105  CA        14.8270    9.3210   22.4690 C.3   310  ASP310      0.1805
    106  C         14.3680    7.8660   22.2980 C.2   310  ASP310      0.2598
    107  O         13.6410    7.5410   21.3540 O.2   310  ASP310     -0.2718
    108  CB        13.7840   10.1370   23.2520 C.3   310  ASP310      0.1424
    109  CG        13.3780    9.4890   24.5770 C.2   310  ASP310      0.3668
    110  OD1       13.9290    9.8830   25.6260 O.co2 310  ASP310     -0.2456
    111  OD2       12.4970    8.6040   24.5800 O.co2 310  ASP310     -0.2456
    112  N         14.7870    6.9980   23.2160 N.am  311  GLY311     -0.1957
    113  CA        14.5020    5.5590   23.1260 C.3   311  GLY311      0.1869
    114  C         13.0400    5.1970   22.9490 C.2   311  GLY311      0.2309
    115  O         12.7160    4.1340   22.4240 O.2   311  GLY311     -0.2863
    116  N         10.9500    3.8820   19.7570 N.3   314  ASN314     -0.1240
    117  CA        10.8770    2.4730   19.4390 C.3   314  ASN314      0.1653
    118  C          9.4570    1.9440   19.5650 C.2   314  ASN314      0.2266
    119  O          9.1220    0.9510   18.9320 O.2   314  ASN314     -0.2867
    120  CB        11.8250    1.6500   20.3260 C.3   314  ASN314      0.1155
    121  CG        13.2860    1.9870   20.0870 C.2   314  ASN314      0.2627
    122  OD1       13.6460    2.4740   19.0160 O.2   314  ASN314     -0.2716
    123  ND2       14.1390    1.7250   21.0870 N.am  314  ASN314     -0.0877
@<TRIPOS>BOND
     1    20    19    2
     2    19    18    1
     3     1     2    1
     4   119   118    2
     5     4     3    2
     6   122   121    2
     7   117   118    1
     8   117   116    1
     9   117   120    1
    10     2     3    1
    11     2     5    1
    12    17    18    1
    13    18    21    1
    14    97    94    1
    15    97    98    1
    16     3     7   am
    17    94    95    1
    18    94    93    1
    19   121   120    1
    20   121   123   am
    21    95    96    2
    22    21    22    1
    23     9    10    2
    24     9     8    1
    25     5     6    1
    26     7     8    1
    27    98    99    1
    28   104   105    1
    29   107   106    2
    30     8    11    1
    31    11    12    1
    32    13    12   ar
    33    13    15   ar
    34    22    23    1
    35    99   100    1
    36    12    14   ar
    37    28    29    1
    38    15    16   ar
    39   106   105    1
    40   106   112   am
    41   115   114    2
    42   105   108    1
    43    34    35    2
    44    34    33    1
    45    23    24    1
    46    24    25    2
    47    36    33    1
    48    36    37    1
    49   114   113    1
    50    32    33    1
    51    32    30   am
    52   113   112    1
    53    47    48    1
    54    47    44    1
    55   100   101    2
    56   108   109    1
    57    25    27    1
    58    25    26    1
    59    45    46    2
    60    45    44    1
    61    14    16   ar
    62    29    30    1
    63    49    48   ar
    64    49    51   ar
    65    30    31    2
    66   103   101    1
    67    48    50   ar
    68    44    43    1
    69   101   102    1
    70    51    53   ar
    71    43    40   am
    72   109   111   ar
    73   109   110   ar
    74    38    39    1
    75    50    52   ar
    76    53    52   ar
    77    53    54    1
    78    91    90    2
    79    40    39    1
    80    40    41    2
    81    89    90    1
    82    89    86    1
    83    88    87    2
    84    90    92   am
    85    39    42    1
    86    87    86    1
    87    86    85    1
    88    85    83   am
    89    64    63    1
    90    83    82    1
    91    83    84    2
    92    82    81    1
    93    65    63    1
    94    63    62    2
    95    77    76    2
    96    81    76   am
    97    76    75    1
    98    62    61    1
    99    61    60    1
   100    71    73    1
   101    71    70    1
   102    55    56    1
   103    72    70    1
   104    56    57    1
   105    56    59    1
   106    75    74    1
   107    75    78    1
   108    60    59    1
   109    70    67    1
   110    69    68    2
   111    74    68   am
   112    57    58    2
   113    68    67    1
   114    78    79    1
   115    78    80    1
   116    67    66    1
