@<TRIPOS>MOLECULE
tmp/2r7mA00.pdb
 161 153 0 0 0
SMALL
GASTEIGER

@<TRIPOS>ATOM
      1  N         22.4380   18.8610   33.9120 N.3   125  ARG125     -0.1245
      2  CA        21.1730   19.1960   34.5590 C.3   125  ARG125      0.1563
      3  C         20.9690   20.7100   34.7190 C.2   125  ARG125      0.2260
      4  O         19.8350   21.1940   34.7460 O.2   125  ARG125     -0.2867
      5  CB        21.0960   18.4980   35.9220 C.3   125  ARG125      0.0307
      6  CG        19.6840   18.1620   36.3920 C.3   125  ARG125      0.0489
      7  CD        19.6810   17.6450   37.8330 C.3   125  ARG125      0.2205
      8  NE        20.3840   16.3690   37.9830 N.pl3 125  ARG125     -0.0865
      9  CZ        19.7940   15.1750   37.9400 C.cat 125  ARG125      0.5346
     10  NH1       18.4830   15.0870   37.7470 N.pl3 125  ARG125      0.1354
     11  NH2       20.5130   14.0680   38.0900 N.pl3 125  ARG125      0.1354
     12  N          9.6050   20.3170   37.6990 N.3   140  PRO140     -0.2116
     13  CA         9.4620   20.0550   39.1370 C.3   140  PRO140      0.1372
     14  C         10.1510   21.1320   39.9840 C.2   140  PRO140      0.2244
     15  O         11.1910   21.6650   39.5870 O.2   140  PRO140     -0.2868
     16  CB        10.1860   18.7250   39.3200 C.3   140  PRO140      0.0268
     17  CG        10.1600   18.0910   37.9720 C.3   140  PRO140      0.0207
     18  CD        10.3020   19.2210   37.0110 C.3   140  PRO140      0.0892
     19  N         11.4580   13.3790   45.0200 N.3   154  ILE154     -0.1245
     20  CA        12.2180   12.2560   44.5020 C.3   154  ILE154      0.1561
     21  C         13.6630   12.7100   44.4840 C.2   154  ILE154      0.2260
     22  O         13.9410   13.8780   44.2160 O.2   154  ILE154     -0.2867
     23  CB        11.7410   11.8250   43.0790 C.3   154  ILE154      0.0252
     24  CG1       12.4920   10.5720   42.6090 C.3   154  ILE154      0.0019
     25  CG2       11.8860   12.9840   42.0900 C.3   154  ILE154      0.0019
     26  CD1       12.0320   10.0430   41.2520 C.3   154  ILE154      0.0001
     27  N         17.5390   12.1640   43.0270 N.3   156  LYS156     -0.1245
     28  CA        18.3340   11.5670   41.9610 C.3   156  LYS156      0.1561
     29  C         19.8330   11.8080   42.1480 C.2   156  LYS156      0.2260
     30  O         20.2540   12.8770   42.5930 O.2   156  LYS156     -0.2867
     31  CB        17.8900   12.1190   40.6020 C.3   156  LYS156      0.0271
     32  CG        16.3860   12.1820   40.4130 C.3   156  LYS156      0.0035
     33  CD        16.0270   12.9150   39.1330 C.3   156  LYS156      0.0206
     34  CE        14.5900   12.6350   38.7320 C.3   156  LYS156      0.1093
     35  NZ        14.0960   13.5910   37.6920 N.3   156  LYS156     -0.1314
     36  N         17.8430    5.5970   43.4030 N.3   160  TYR160     -0.1241
     37  CA        16.7960    6.6070   43.4850 C.3   160  TYR160      0.1605
     38  C         15.9710    6.3250   44.7280 C.2   160  TYR160      0.2264
     39  O         15.8460    5.1720   45.1360 O.2   160  TYR160     -0.2867
     40  CB        15.8650    6.5020   42.2740 C.3   160  TYR160      0.0534
     41  CG        16.3040    7.2340   41.0240 C.ar  160  TYR160     -0.0201
     42  CD1       17.3580    6.7670   40.2490 C.ar  160  TYR160     -0.0009
     43  CD2       15.6310    8.3640   40.5970 C.ar  160  TYR160     -0.0009
     44  CE1       17.7510    7.4300   39.0990 C.ar  160  TYR160      0.0417
     45  CE2       16.0080    9.0310   39.4480 C.ar  160  TYR160      0.0417
     46  CZ        17.0700    8.5650   38.7030 C.ar  160  TYR160      0.1957
     47  OH        17.4490    9.2350   37.5590 O.3   160  TYR160     -0.2866
     48  N         14.0090   16.9650   44.0420 N.3   193  GLU193     -0.1231
     49  CA        12.9560   17.7450   43.4100 C.3   193  GLU193      0.1699
     50  C         11.5780   17.2490   43.7820 C.2   193  GLU193      0.2592
     51  O         11.3980   16.1130   44.2200 O.2   193  GLU193     -0.2718
     52  CB        13.1220   17.7840   41.8780 C.3   193  GLU193      0.0402
     53  CG        13.1960   16.4120   41.1870 C.3   193  GLU193      0.1161
     54  CD        13.1880   16.5150   39.6590 C.2   193  GLU193      0.3649
     55  OE1       13.8720   17.4010   39.1030 O.co2 193  GLU193     -0.2457
     56  OE2       12.5000   15.7050   39.0060 O.co2 193  GLU193     -0.2457
     57  N         10.6060   18.1280   43.6090 N.am  194  GLU194     -0.1966
     58  CA         9.2100   17.7880   43.7680 C.3   194  GLU194      0.1733
     59  C          8.8720   16.4620   43.0860 C.2   194  GLU194      0.2616
     60  O          9.2450   16.2380   41.9370 O.2   194  GLU194     -0.2715
     61  CB         8.3760   18.9100   43.1570 C.3   194  GLU194      0.0429
     62  CG         6.8980   18.6730   43.1750 C.3   194  GLU194      0.1163
     63  CD         6.1440   19.7710   42.4790 C.2   194  GLU194      0.3649
     64  OE1        6.7950   20.6550   41.8660 O.co2 194  GLU194     -0.2457
     65  OE2        4.8960   19.7510   42.5490 O.co2 194  GLU194     -0.2457
     66  N          8.1740   15.5810   43.7950 N.am  195  TYR195     -0.1960
     67  CA         7.6440   14.3660   43.1890 C.3   195  TYR195      0.1771
     68  C          6.3400   14.7450   42.4930 C.2   195  TYR195      0.2619
     69  O          5.3600   15.1150   43.1500 O.2   195  TYR195     -0.2715
     70  CB         7.4010   13.2670   44.2360 C.3   195  TYR195      0.0574
     71  CG         7.0850   11.9220   43.6120 C.ar  195  TYR195     -0.0198
     72  CD1        8.0850   10.9750   43.4180 C.ar  195  TYR195     -0.0009
     73  CD2        5.7940   11.6110   43.1800 C.ar  195  TYR195     -0.0009
     74  CE1        7.8100    9.7470   42.8200 C.ar  195  TYR195      0.0417
     75  CE2        5.5140   10.3860   42.5770 C.ar  195  TYR195      0.0417
     76  CZ         6.5240    9.4630   42.3980 C.ar  195  TYR195      0.1957
     77  OH         6.2530    8.2420   41.8090 O.3   195  TYR195     -0.2866
     78  N          6.3340   14.7010   41.1620 N.am  196  VAL196     -0.1977
     79  CA         5.1100   14.9970   40.4190 C.3   196  VAL196      0.1596
     80  C          4.2720   13.7260   40.2840 C.2   196  VAL196      0.2287
     81  O          4.7500   12.7000   39.8030 O.2   196  VAL196     -0.2864
     82  CB         5.3870   15.6540   39.0360 C.3   196  VAL196      0.0276
     83  CG1        4.0800   15.9170   38.2910 C.3   196  VAL196      0.0022
     84  CG2        6.1640   16.9710   39.2110 C.3   196  VAL196      0.0022
     85  N          2.5070    9.7590   32.7940 N.3   200  ASN200     -0.1240
     86  CA         3.6790    9.9240   31.9450 C.3   200  ASN200      0.1653
     87  C          3.3940   10.0040   30.4460 C.2   200  ASN200      0.2266
     88  O          2.8600    9.0610   29.8420 O.2   200  ASN200     -0.2867
     89  CB         4.6510    8.7600   32.1830 C.3   200  ASN200      0.1155
     90  CG         5.9880    8.9470   31.4620 C.2   200  ASN200      0.2627
     91  OD1        6.6250    7.9740   31.0770 O.2   200  ASN200     -0.2716
     92  ND2        6.4060   10.1960   31.2770 N.am  200  ASN200     -0.0877
     93  N          7.2100    5.3240   29.8900 N.3   222  ARG222     -0.1245
     94  CA         8.2910    4.4410   30.2960 C.3   222  ARG222      0.1563
     95  C          7.7880    3.1960   31.0070 C.2   222  ARG222      0.2260
     96  O          6.7370    3.2060   31.6600 O.2   222  ARG222     -0.2867
     97  CB         9.2630    5.1720   31.2300 C.3   222  ARG222      0.0307
     98  CG         9.7500    6.5040   30.7170 C.3   222  ARG222      0.0489
     99  CD        10.4570    6.3380   29.3880 C.3   222  ARG222      0.2205
    100  NE        11.3820    7.4370   29.1260 N.pl3 222  ARG222     -0.0865
    101  CZ        11.5960    7.9730   27.9260 C.cat 222  ARG222      0.5346
    102  NH1       10.9380    7.5280   26.8650 N.pl3 222  ARG222      0.1354
    103  NH2       12.4580    8.9710   27.7910 N.pl3 222  ARG222      0.1354
    104  N          9.5710    0.8470   33.6280 N.3   224  GLU224     -0.1245
    105  CA        10.7970    0.8470   34.4160 C.3   224  GLU224      0.1567
    106  C         10.8470   -0.2520   35.4770 C.2   224  GLU224      0.2260
    107  O          9.8390   -0.6100   36.0710 O.2   224  GLU224     -0.2867
    108  CB        11.0030    2.2340   35.0200 C.3   224  GLU224      0.0388
    109  CG        11.2930    3.2760   33.9550 C.3   224  GLU224      0.1160
    110  CD        11.1420    4.6970   34.4430 C.2   224  GLU224      0.3649
    111  OE1       10.3210    4.9410   35.3530 O.co2 224  GLU224     -0.2457
    112  OE2       11.8380    5.5740   33.8970 O.co2 224  GLU224     -0.2457
    113  N         14.5150    2.6500   39.1460 N.3   247  TYR247     -0.1241
    114  CA        13.8510    3.2650   38.0000 C.3   247  TYR247      0.1605
    115  C         14.6320    3.0320   36.7160 C.2   247  TYR247      0.2264
    116  O         14.9100    3.9660   35.9620 O.2   247  TYR247     -0.2867
    117  CB        13.6510    4.7620   38.2580 C.3   247  TYR247      0.0534
    118  CG        12.6680    5.0320   39.3750 C.ar  247  TYR247     -0.0201
    119  CD1       11.3300    5.3030   39.1000 C.ar  247  TYR247     -0.0009
    120  CD2       13.0730    4.9890   40.7150 C.ar  247  TYR247     -0.0009
    121  CE1       10.4240    5.5420   40.1220 C.ar  247  TYR247      0.0417
    122  CE2       12.1710    5.2150   41.7470 C.ar  247  TYR247      0.0417
    123  CZ        10.8550    5.4950   41.4440 C.ar  247  TYR247      0.1957
    124  OH         9.9640    5.7180   42.4610 O.3   247  TYR247     -0.2866
    125  N          9.9810   14.7280   28.2640 N.3   291  GLN291     -0.1245
    126  CA         9.4680   13.6740   29.1450 C.3   291  GLN291      0.1566
    127  C          8.7270   14.3140   30.3110 C.2   291  GLN291      0.2260
    128  O          9.3290   14.8950   31.2090 O.2   291  GLN291     -0.2867
    129  CB        10.6120   12.8010   29.6290 C.3   291  GLN291      0.0367
    130  CG        11.4170   12.2510   28.4740 C.3   291  GLN291      0.0905
    131  CD        12.8550   12.0080   28.8300 C.2   291  GLN291      0.2608
    132  OE1       13.7630   12.5260   28.1760 O.2   291  GLN291     -0.2717
    133  NE2       13.0800   11.2120   29.8700 N.am  291  GLN291     -0.0878
    134  N          4.9860   14.7440   32.9950 N.3   293  LEU293     -0.1245
    135  CA         3.9700   14.0920   33.7910 C.3   293  LEU293      0.1561
    136  C          2.7870   15.0290   33.8050 C.2   293  LEU293      0.2260
    137  O          2.9500   16.2280   33.9720 O.2   293  LEU293     -0.2867
    138  CB         4.4800   13.8210   35.2110 C.3   293  LEU293      0.0270
    139  CG         5.5190   12.6970   35.3310 C.3   293  LEU293      0.0019
    140  CD1        6.4100   12.8520   36.5710 C.3   293  LEU293      0.0001
    141  CD2        4.8490   11.3210   35.2860 C.3   293  LEU293      0.0001
    142  N         10.2230   16.7320   33.4410 N.3   303  PHE303     -0.1227
    143  CA        11.2680   16.3690   34.3930 C.3   303  PHE303      0.1736
    144  C         12.5610   15.9760   33.6890 C.2   303  PHE303      0.2595
    145  O         13.5880   15.7250   34.3290 O.2   303  PHE303     -0.2718
    146  CB        10.8020   15.2200   35.2990 C.3   303  PHE303      0.0547
    147  CG        10.4440   13.9550   34.5540 C.ar  303  PHE303     -0.0202
    148  CD1       11.4280   13.0520   34.1790 C.ar  303  PHE303     -0.0042
    149  CD2        9.1210   13.6640   34.2480 C.ar  303  PHE303     -0.0042
    150  CE1       11.1070   11.8960   33.4990 C.ar  303  PHE303     -0.0003
    151  CE2        8.7900   12.4990   33.5670 C.ar  303  PHE303     -0.0003
    152  CZ         9.7850   11.6190   33.1900 C.ar  303  PHE303     -0.0000
    153  N         12.5040   15.9200   32.3660 N.am  304  GLU304     -0.1979
    154  CA        13.6370   15.4800   31.5760 C.3   304  GLU304      0.1602
    155  C         13.4030   15.8780   30.1220 C.2   304  GLU304      0.2287
    156  O         12.2800   16.1770   29.7160 O.2   304  GLU304     -0.2864
    157  CB        13.8040   13.9630   31.7170 C.3   304  GLU304      0.0415
    158  CG        15.1560   13.4090   31.2910 C.3   304  GLU304      0.1163
    159  CD        16.3190   14.0100   32.0640 C.2   304  GLU304      0.3649
    160  OE1       17.3800   14.2520   31.4450 O.co2 304  GLU304     -0.2457
    161  OE2       16.1750   14.2410   33.2870 O.co2 304  GLU304     -0.2457
@<TRIPOS>BOND
     1   102   101    1
     2   103   101    1
     3   101   100    2
     4   132   131    2
     5   125   126    1
     6   130   131    1
     7   130   129    1
     8   131   133   am
     9   100    99    1
    10   126   129    1
    11   126   127    1
    12    99    98    1
    13   156   155    2
    14    88    87    2
    15    93    94    1
    16   155   154    1
    17    94    95    1
    18    94    97    1
    19   127   128    2
    20    87    86    1
    21    98    97    1
    22    95    96    2
    23    91    90    2
    24    92    90   am
    25   158   157    1
    26   158   159    1
    27   160   159   ar
    28    90    89    1
    29   154   157    1
    30   154   153    1
    31    86    89    1
    32    86    85    1
    33   159   161   ar
    34   153   144   am
    35   134   135    1
    36   152   150   ar
    37   152   151   ar
    38   142   143    1
    39   150   148   ar
    40   151   149   ar
    41   104   105    1
    42   144   145    2
    43   144   143    1
    44   135   136    1
    45   135   138    1
    46   136   137    2
    47   112   110   ar
    48     1     2    1
    49   109   110    1
    50   109   108    1
    51   148   147   ar
    52   149   147   ar
    53   143   146    1
    54   105   108    1
    55   105   106    1
    56   110   111   ar
    57   147   146    1
    58     2     3    1
    59     2     5    1
    60     3     4    2
    61   138   139    1
    62   141   139    1
    63   139   140    1
    64   106   107    2
    65     5     6    1
    66   116   115    2
    67     6     7    1
    68   115   114    1
    69    18    12    1
    70    18    17    1
    71    47    46    1
    72    35    34    1
    73    12    13    1
    74    10     9    1
    75     7     8    1
    76     9     8    2
    77     9    11    1
    78    17    16    1
    79   114   117    1
    80   114   113    1
    81   117   118    1
    82    83    82    1
    83    46    44   ar
    84    46    45   ar
    85    34    33    1
    86    56    54   ar
    87    82    84    1
    88    82    79    1
    89    44    42   ar
    90   119   118   ar
    91   119   121   ar
    92    55    54   ar
    93    33    32    1
    94    13    16    1
    95    13    14    1
    96   118   120   ar
    97    45    43   ar
    98    15    14    2
    99    54    53    1
   100    81    80    2
   101   121   123   ar
   102    42    41   ar
   103    80    79    1
   104    32    31    1
   105    79    78    1
   106    43    41   ar
   107    31    28    1
   108   120   122   ar
   109    41    40    1
   110    78    68   am
   111    53    52    1
   112    26    24    1
   113   123   122   ar
   114   123   124    1
   115    77    76    1
   116    64    63   ar
   117    52    49    1
   118    60    59    2
   119    28    29    1
   120    28    27    1
   121    25    23    1
   122    29    30    2
   123    40    37    1
   124    76    75   ar
   125    76    74   ar
   126    63    65   ar
   127    63    62    1
   128    68    69    2
   129    68    67    1
   130    75    73   ar
   131    24    23    1
   132    74    72   ar
   133    23    20    1
   134    59    58    1
   135    59    66   am
   136    61    62    1
   137    61    58    1
   138    73    71   ar
   139    67    66    1
   140    67    70    1
   141    36    37    1
   142    49    50    1
   143    49    48    1
   144    72    71   ar
   145    37    38    1
   146    57    58    1
   147    57    50   am
   148    71    70    1
   149    50    51    2
   150    22    21    2
   151    21    20    1
   152    20    19    1
   153    38    39    2
