@<TRIPOS>MOLECULE
tmp/2r7nA00.pdb
 158 150 0 0 0
SMALL
GASTEIGER

@<TRIPOS>ATOM
      1  N          9.3470   20.1240   37.3720 N.3   140  PRO140     -0.2116
      2  CA         9.0990   19.9050   38.8050 C.3   140  PRO140      0.1372
      3  C          9.9470   20.8600   39.6560 C.2   140  PRO140      0.2244
      4  O         11.0490   21.2140   39.2500 O.2   140  PRO140     -0.2868
      5  CB         9.5300   18.4540   39.0310 C.3   140  PRO140      0.0268
      6  CG        10.3880   18.0960   37.8700 C.3   140  PRO140      0.0207
      7  CD         9.9920   18.9730   36.7220 C.3   140  PRO140      0.0892
      8  N         11.2240   13.1890   44.5730 N.3   154  ILE154     -0.1245
      9  CA        11.9950   12.0820   44.0480 C.3   154  ILE154      0.1561
     10  C         13.4300   12.5430   44.0700 C.2   154  ILE154      0.2260
     11  O         13.7040   13.7380   43.8940 O.2   154  ILE154     -0.2867
     12  CB        11.5850   11.7020   42.5990 C.3   154  ILE154      0.0252
     13  CG1       12.2780   10.4070   42.1660 C.3   154  ILE154      0.0019
     14  CG2       11.9190   12.8280   41.6220 C.3   154  ILE154      0.0019
     15  CD1       11.7290    9.8300   40.8760 C.3   154  ILE154      0.0001
     16  N         17.3190   11.9410   42.6050 N.3   156  LYS156     -0.1245
     17  CA        18.1290   11.3790   41.5300 C.3   156  LYS156      0.1561
     18  C         19.6240   11.6160   41.7260 C.2   156  LYS156      0.2260
     19  O         20.0370   12.6170   42.3160 O.2   156  LYS156     -0.2867
     20  CB        17.6970   11.9820   40.1950 C.3   156  LYS156      0.0271
     21  CG        16.2040   11.9380   39.9620 C.3   156  LYS156      0.0035
     22  CD        15.8210   12.7580   38.7560 C.3   156  LYS156      0.0206
     23  CE        14.4150   12.4320   38.3300 C.3   156  LYS156      0.1093
     24  NZ        13.9270   13.3890   37.3140 N.3   156  LYS156     -0.1314
     25  N         17.6000    5.7380   42.5490 N.3   160  TYR160     -0.1241
     26  CA        16.5550    6.7110   42.8390 C.3   160  TYR160      0.1605
     27  C         15.7920    6.3260   44.1010 C.2   160  TYR160      0.2264
     28  O         15.7470    5.1540   44.4730 O.2   160  TYR160     -0.2867
     29  CB        15.5650    6.7820   41.6730 C.3   160  TYR160      0.0534
     30  CG        16.1230    7.3560   40.3910 C.ar  160  TYR160     -0.0201
     31  CD1       17.2380    6.7940   39.7810 C.ar  160  TYR160     -0.0009
     32  CD2       15.5170    8.4430   39.7780 C.ar  160  TYR160     -0.0009
     33  CE1       17.7510    7.3140   38.6070 C.ar  160  TYR160      0.0417
     34  CE2       16.0150    8.9680   38.6010 C.ar  160  TYR160      0.0417
     35  CZ        17.1350    8.4010   38.0190 C.ar  160  TYR160      0.1957
     36  OH        17.6390    8.9240   36.8500 O.3   160  TYR160     -0.2866
     37  N         13.9420   16.6780   43.5760 N.3   193  GLU193     -0.1231
     38  CA        12.8870   17.4620   42.9640 C.3   193  GLU193      0.1699
     39  C         11.4960   17.0090   43.3620 C.2   193  GLU193      0.2592
     40  O         11.2800   15.8710   43.8130 O.2   193  GLU193     -0.2718
     41  CB        13.0230   17.4750   41.4340 C.3   193  GLU193      0.0402
     42  CG        13.1350   16.0940   40.7750 C.3   193  GLU193      0.1161
     43  CD        13.0270   16.1510   39.2480 C.2   193  GLU193      0.3649
     44  OE1       13.6970   17.0050   38.6270 O.co2 193  GLU193     -0.2457
     45  OE2       12.2680   15.3420   38.6680 O.co2 193  GLU193     -0.2457
     46  N         10.5540   17.9210   43.1880 N.am  194  GLU194     -0.1966
     47  CA         9.1440   17.6270   43.3720 C.3   194  GLU194      0.1733
     48  C          8.7600   16.3330   42.6690 C.2   194  GLU194      0.2616
     49  O          9.0290   16.1610   41.4870 O.2   194  GLU194     -0.2715
     50  CB         8.3170   18.7620   42.7840 C.3   194  GLU194      0.0429
     51  CG         6.8640   18.4450   42.6830 C.3   194  GLU194      0.1163
     52  CD         6.0510   19.6170   42.1860 C.2   194  GLU194      0.3649
     53  OE1        6.6340   20.5690   41.5920 O.co2 194  GLU194     -0.2457
     54  OE2        4.8190   19.5690   42.3870 O.co2 194  GLU194     -0.2457
     55  N          8.1470   15.4160   43.3980 N.am  195  TYR195     -0.1960
     56  CA         7.6290   14.2100   42.7880 C.3   195  TYR195      0.1771
     57  C          6.3170   14.5940   42.1370 C.2   195  TYR195      0.2619
     58  O          5.3380   14.8830   42.8300 O.2   195  TYR195     -0.2715
     59  CB         7.4070   13.1090   43.8310 C.3   195  TYR195      0.0574
     60  CG         7.0720   11.7830   43.2080 C.ar  195  TYR195     -0.0198
     61  CD1        8.0510   10.8200   43.0090 C.ar  195  TYR195     -0.0009
     62  CD2        5.7810   11.5000   42.7870 C.ar  195  TYR195     -0.0009
     63  CE1        7.7460    9.6010   42.4190 C.ar  195  TYR195      0.0417
     64  CE2        5.4690   10.2880   42.1940 C.ar  195  TYR195      0.0417
     65  CZ         6.4490    9.3450   42.0130 C.ar  195  TYR195      0.1957
     66  OH         6.1360    8.1330   41.4330 O.3   195  TYR195     -0.2866
     67  N          6.2990   14.6450   40.8070 N.am  196  VAL196     -0.1977
     68  CA         5.0660   14.9920   40.1050 C.3   196  VAL196      0.1596
     69  C          4.2220   13.7360   39.9530 C.2   196  VAL196      0.2287
     70  O          4.7050   12.7170   39.4640 O.2   196  VAL196     -0.2864
     71  CB         5.3340   15.6460   38.7320 C.3   196  VAL196      0.0276
     72  CG1        4.0340   15.8020   37.9540 C.3   196  VAL196      0.0022
     73  CG2        6.0210   17.0000   38.9120 C.3   196  VAL196      0.0022
     74  N          2.4160    9.6820   32.5580 N.3   200  ASN200     -0.1240
     75  CA         3.6010    9.8220   31.7230 C.3   200  ASN200      0.1653
     76  C          3.3180    9.8620   30.2270 C.2   200  ASN200      0.2266
     77  O          2.7670    8.9150   29.6470 O.2   200  ASN200     -0.2867
     78  CB         4.5360    8.6430   31.9840 C.3   200  ASN200      0.1155
     79  CG         5.8260    8.7280   31.1880 C.2   200  ASN200      0.2627
     80  OD1        6.4250    7.7000   30.8550 O.2   200  ASN200     -0.2716
     81  ND2        6.2810    9.9530   30.9050 N.am  200  ASN200     -0.0877
     82  N          7.1170    5.2720   29.6100 N.3   222  ARG222     -0.1245
     83  CA         8.1920    4.4040   30.0480 C.3   222  ARG222      0.1563
     84  C          7.6760    3.1810   30.7680 C.2   222  ARG222      0.2260
     85  O          6.6730    3.2200   31.4920 O.2   222  ARG222     -0.2867
     86  CB         9.1210    5.1420   31.0120 C.3   222  ARG222      0.0307
     87  CG         9.5990    6.4660   30.4970 C.3   222  ARG222      0.0489
     88  CD        10.3240    6.2360   29.2250 C.3   222  ARG222      0.2205
     89  NE        11.3230    7.2540   28.9660 N.pl3 222  ARG222     -0.0865
     90  CZ        11.6980    7.6100   27.7450 C.cat 222  ARG222      0.5346
     91  NH1       11.1270    7.0300   26.6980 N.pl3 222  ARG222      0.1354
     92  NH2       12.6270    8.5490   27.5780 N.pl3 222  ARG222      0.1354
     93  N          9.4460    0.7740   33.3140 N.3   224  GLU224     -0.1245
     94  CA        10.6630    0.7870   34.1310 C.3   224  GLU224      0.1567
     95  C         10.6950   -0.3230   35.1770 C.2   224  GLU224      0.2260
     96  O          9.6660   -0.7430   35.6860 O.2   224  GLU224     -0.2867
     97  CB        10.8420    2.1650   34.7600 C.3   224  GLU224      0.0388
     98  CG        11.4100    3.1760   33.7810 C.3   224  GLU224      0.1160
     99  CD        11.0910    4.6190   34.1290 C.2   224  GLU224      0.3649
    100  OE1       10.2970    4.8670   35.0690 O.co2 224  GLU224     -0.2457
    101  OE2       11.6330    5.5110   33.4360 O.co2 224  GLU224     -0.2457
    102  N         14.2970    2.5120   38.7990 N.3   247  TYR247     -0.1241
    103  CA        13.6710    3.1310   37.6440 C.3   247  TYR247      0.1605
    104  C         14.5290    2.9210   36.4010 C.2   247  TYR247      0.2264
    105  O         14.8470    3.8640   35.6870 O.2   247  TYR247     -0.2867
    106  CB        13.4530    4.6280   37.9090 C.3   247  TYR247      0.0534
    107  CG        12.4480    4.9050   39.0080 C.ar  247  TYR247     -0.0201
    108  CD1       11.1200    5.2060   38.7090 C.ar  247  TYR247     -0.0009
    109  CD2       12.8280    4.8650   40.3520 C.ar  247  TYR247     -0.0009
    110  CE1       10.1980    5.4570   39.7180 C.ar  247  TYR247      0.0417
    111  CE2       11.9120    5.1100   41.3720 C.ar  247  TYR247      0.0417
    112  CZ        10.6080    5.4040   41.0520 C.ar  247  TYR247      0.1957
    113  OH         9.7130    5.6420   42.0650 O.3   247  TYR247     -0.2866
    114  N         15.0610    2.0010   32.7370 N.3   249  ILE249     -0.1245
    115  CA        14.2640    1.9190   31.5150 C.3   249  ILE249      0.1561
    116  C         14.4480    0.5530   30.8820 C.2   249  ILE249      0.2260
    117  O         15.5760    0.1340   30.6340 O.2   249  ILE249     -0.2867
    118  CB        14.6420    3.0020   30.4830 C.3   249  ILE249      0.0252
    119  CG1       13.5970    3.0420   29.3740 C.3   249  ILE249      0.0019
    120  CG2       16.0250    2.7370   29.9050 C.3   249  ILE249      0.0019
    121  CD1       12.2120    3.4330   29.8640 C.3   249  ILE249      0.0001
    122  N          9.9480   14.5170   27.9860 N.3   291  GLN291     -0.1245
    123  CA         9.4650   13.4600   28.8700 C.3   291  GLN291      0.1566
    124  C          8.6860   14.0880   30.0130 C.2   291  GLN291      0.2260
    125  O          9.2600   14.5890   30.9680 O.2   291  GLN291     -0.2867
    126  CB        10.6380   12.6590   29.4070 C.3   291  GLN291      0.0367
    127  CG        11.4980   12.0890   28.3120 C.3   291  GLN291      0.0905
    128  CD        12.8460   11.6500   28.8060 C.2   291  GLN291      0.2608
    129  OE1       13.8740   12.1010   28.2980 O.2   291  GLN291     -0.2717
    130  NE2       12.8600   10.7640   29.8070 N.am  291  GLN291     -0.0878
    131  N          4.9290   14.6580   32.5940 N.3   293  LEU293     -0.1245
    132  CA         3.9300   14.0190   33.4260 C.3   293  LEU293      0.1561
    133  C          2.7280   14.9240   33.4510 C.2   293  LEU293      0.2260
    134  O          2.8480   16.1390   33.6130 O.2   293  LEU293     -0.2867
    135  CB         4.4530   13.7770   34.8420 C.3   293  LEU293      0.0270
    136  CG         5.3900   12.5670   34.9820 C.3   293  LEU293      0.0019
    137  CD1        6.3150   12.6810   36.1890 C.3   293  LEU293      0.0001
    138  CD2        4.5930   11.2720   35.0230 C.3   293  LEU293      0.0001
    139  N          9.9840   16.5420   33.1690 N.3   303  PHE303     -0.1227
    140  CA        10.9480   16.1360   34.1680 C.3   303  PHE303      0.1736
    141  C         12.2550   15.7250   33.5090 C.2   303  PHE303      0.2595
    142  O         13.2500   15.4650   34.1830 O.2   303  PHE303     -0.2718
    143  CB        10.3910   14.9800   34.9990 C.3   303  PHE303      0.0547
    144  CG        10.2460   13.6890   34.2310 C.ar  303  PHE303     -0.0202
    145  CD1       11.3500   12.8900   33.9810 C.ar  303  PHE303     -0.0042
    146  CD2        9.0040   13.2660   33.7900 C.ar  303  PHE303     -0.0042
    147  CE1       11.2270   11.7050   33.2860 C.ar  303  PHE303     -0.0003
    148  CE2        8.8740   12.0810   33.0870 C.ar  303  PHE303     -0.0003
    149  CZ         9.9860   11.3010   32.8320 C.ar  303  PHE303     -0.0000
    150  N         12.2420   15.6510   32.1860 N.am  304  GLU304     -0.1979
    151  CA        13.4330   15.2820   31.4290 C.3   304  GLU304      0.1602
    152  C         13.2250   15.6350   29.9600 C.2   304  GLU304      0.2287
    153  O         12.0920   15.8320   29.5100 O.2   304  GLU304     -0.2864
    154  CB        13.7280   13.7900   31.5930 C.3   304  GLU304      0.0415
    155  CG        15.0600   13.3260   31.0240 C.3   304  GLU304      0.1163
    156  CD        16.2590   13.8920   31.7680 C.2   304  GLU304      0.3649
    157  OE1       16.2030   13.9940   33.0140 O.co2 304  GLU304     -0.2457
    158  OE2       17.2650   14.2270   31.1030 O.co2 304  GLU304     -0.2457
@<TRIPOS>BOND
     1    91    90    1
     2    92    90    1
     3    90    89    2
     4   122   123    1
     5   129   128    2
     6   127   128    1
     7   127   126    1
     8   128   130   am
     9   123   126    1
    10   123   124    1
    11    89    88    1
    12    88    87    1
    13   119   121    1
    14   119   118    1
    15   153   152    2
    16    82    83    1
    17    77    76    2
    18   120   118    1
    19   152   151    1
    20   124   125    2
    21    83    84    1
    22    83    86    1
    23    76    75    1
    24   118   115    1
    25    87    86    1
    26   117   116    2
    27    84    85    2
    28    80    79    2
    29   116   115    1
    30    81    79   am
    31   155   154    1
    32   155   156    1
    33   158   156   ar
    34    79    78    1
    35   151   154    1
    36   151   150    1
    37   115   114    1
    38    75    78    1
    39    75    74    1
    40   156   157   ar
    41   150   141   am
    42   131   132    1
    43   149   148   ar
    44   149   147   ar
    45   148   146   ar
    46   139   140    1
    47   147   145   ar
    48    93    94    1
    49   132   133    1
    50   132   135    1
    51   101    99   ar
    52   133   134    2
    53   141   140    1
    54   141   142    2
    55    98    99    1
    56    98    97    1
    57   146   144   ar
    58   145   144   ar
    59    99   100   ar
    60    94    97    1
    61    94    95    1
    62   140   143    1
    63   144   143    1
    64   135   136    1
    65   136   138    1
    66   136   137    1
    67    95    96    2
    68   105   104    2
    69   104   103    1
    70     7     1    1
    71     7     6    1
    72    36    35    1
    73    24    23    1
    74     1     2    1
    75   103   106    1
    76   103   102    1
    77     6     5    1
    78   106   107    1
    79    72    71    1
    80    35    34   ar
    81    35    33   ar
    82    23    22    1
    83    34    32   ar
    84    33    31   ar
    85    44    43   ar
    86    45    43   ar
    87   108   107   ar
    88   108   110   ar
    89    71    73    1
    90    71    68    1
    91    22    21    1
    92     2     5    1
    93     2     3    1
    94   107   109   ar
    95    43    42    1
    96     4     3    2
    97    70    69    2
    98   110   112   ar
    99    32    30   ar
   100    31    30   ar
   101    69    68    1
   102    21    20    1
   103    68    67    1
   104    20    17    1
   105   109   111   ar
   106    30    29    1
   107    42    41    1
   108    67    57   am
   109    15    13    1
   110   112   111   ar
   111   112   113    1
   112    66    65    1
   113    41    38    1
   114    49    48    2
   115    17    18    1
   116    17    16    1
   117    53    52   ar
   118    14    12    1
   119    29    26    1
   120    18    19    2
   121    65    64   ar
   122    65    63   ar
   123    57    56    1
   124    57    58    2
   125    13    12    1
   126    52    54   ar
   127    52    51    1
   128    64    62   ar
   129    63    61   ar
   130    25    26    1
   131    12     9    1
   132    48    47    1
   133    48    55   am
   134    51    50    1
   135    50    47    1
   136    62    60   ar
   137    56    55    1
   138    56    59    1
   139    26    27    1
   140    38    39    1
   141    38    37    1
   142    61    60   ar
   143    46    39   am
   144    46    47    1
   145    60    59    1
   146    39    40    2
   147    11    10    2
   148     9    10    1
   149     9     8    1
   150    27    28    2
