@<TRIPOS>MOLECULE
tmp/2r7nA01.pdb
 142 133 0 0 0
SMALL
GASTEIGER

@<TRIPOS>ATOM
      1  N         22.2590    0.1100   18.2360 N.3    26  SER26      -0.1202
      2  CA        21.6330    0.1230   19.5590 C.3    26  SER26       0.2020
      3  C         20.7320    1.3390   19.7210 C.2    26  SER26       0.2618
      4  O         20.7380    2.2550   18.8890 O.2    26  SER26      -0.2717
      5  CB        22.7110    0.1390   20.6540 C.3    26  SER26       0.2103
      6  OG        22.1750    0.4990   21.9160 O.3    26  SER26      -0.2182
      7  N         19.9670    1.3390   20.8110 N.am   27  HIS27      -0.1975
      8  CA        19.1540    2.4890   21.2380 C.3    27  HIS27       0.1656
      9  C         17.8770    2.7060   20.4230 C.2    27  HIS27       0.2291
     10  O         16.7720    2.4000   20.8810 O.2    27  HIS27      -0.2864
     11  CB        19.9670    3.7900   21.2870 C.3    27  HIS27       0.0771
     12  CG        19.1970    4.9400   21.8590 C.ar   27  HIS27       0.0820
     13  ND1       18.5920    5.8980   21.0750 N.ar   27  HIS27      -0.2267
     14  CD2       18.8900    5.2560   23.1400 C.ar   27  HIS27       0.1154
     15  CE1       17.9610    6.7650   21.8450 C.ar   27  HIS27       0.1986
     16  NE2       18.1240    6.3970   23.1030 N.ar   27  HIS27      -0.2212
     17  N         26.4770   -8.3440   19.5580 N.3    51  ARG51      -0.1245
     18  CA        25.4330   -7.3220   19.5500 C.3    51  ARG51       0.1563
     19  C         24.8580   -7.0440   18.1540 C.2    51  ARG51       0.2260
     20  O         24.0680   -6.1070   17.9760 O.2    51  ARG51      -0.2867
     21  CB        25.9520   -6.0310   20.1930 C.3    51  ARG51       0.0307
     22  CG        26.1900   -6.1570   21.7090 C.3    51  ARG51       0.0489
     23  CD        26.3700   -4.8060   22.3910 C.3    51  ARG51       0.2205
     24  NE        25.1200   -4.0490   22.4840 N.pl3  51  ARG51      -0.0865
     25  CZ        24.9850   -2.9060   23.1520 C.cat  51  ARG51       0.5346
     26  NH1       26.0190   -2.3870   23.8000 N.pl3  51  ARG51       0.1354
     27  NH2       23.8160   -2.2790   23.1790 N.pl3  51  ARG51       0.1354
     28  N         21.2810    8.3420   21.9610 N.3    93  GLY93      -0.1210
     29  CA        21.5470    7.6330   23.1580 C.3    93  GLY93       0.1956
     30  C         22.7670    6.9280   23.3270 C.2    93  GLY93       0.2612
     31  O         23.5400    7.2100   23.9860 O.2    93  GLY93      -0.2717
     32  N         22.8290    5.8870   22.6960 N.am   94  SER94      -0.1952
     33  CA        23.8480    4.9970   22.8650 C.3    94  SER94       0.1924
     34  C         25.0640    5.4510   22.2230 C.2    94  SER94       0.2314
     35  O         26.0590    5.1950   22.6400 O.2    94  SER94      -0.2863
     36  CB        23.4480    3.6810   22.3030 C.3    94  SER94       0.2116
     37  OG        23.1580    2.7340   23.1890 O.3    94  SER94      -0.2180
     38  N         27.0720    7.8720   24.4230 N.3    97  ALA97      -0.1231
     39  CA        27.6840    7.2290   25.5790 C.3    97  ALA97       0.1694
     40  C         28.9680    6.4940   25.2240 C.2    97  ALA97       0.2592
     41  O         30.0210    6.7570   25.7990 O.2    97  ALA97      -0.2718
     42  CB        26.6930    6.2820   26.2540 C.3    97  ALA97       0.0304
     43  N         28.8820    5.5660   24.2810 N.am   98  TYR98      -0.1976
     44  CA        30.0480    4.7890   23.8870 C.3    98  TYR98       0.1639
     45  C         31.1230    5.6540   23.2340 C.2    98  TYR98       0.2290
     46  O         32.3210    5.4000   23.3810 O.2    98  TYR98      -0.2864
     47  CB        29.6380    3.6770   22.9400 C.3    98  TYR98       0.0560
     48  CG        28.9920    2.4970   23.6210 C.ar   98  TYR98      -0.0198
     49  CD1       27.6430    2.2190   23.4350 C.ar   98  TYR98      -0.0009
     50  CD2       29.7290    1.6510   24.4360 C.ar   98  TYR98      -0.0009
     51  CE1       27.0480    1.1310   24.0420 C.ar   98  TYR98       0.0417
     52  CE2       29.1430    0.5600   25.0460 C.ar   98  TYR98       0.0417
     53  CZ        27.8010    0.3090   24.8450 C.ar   98  TYR98       0.1957
     54  OH        27.2030   -0.7690   25.4480 O.3    98  TYR98      -0.2866
     55  N          7.1170    5.2720   29.6100 N.3   222  ARG222     -0.1245
     56  CA         8.1920    4.4040   30.0480 C.3   222  ARG222      0.1563
     57  C          7.6760    3.1810   30.7680 C.2   222  ARG222      0.2260
     58  O          6.6730    3.2200   31.4920 O.2   222  ARG222     -0.2867
     59  CB         9.1210    5.1420   31.0120 C.3   222  ARG222      0.0307
     60  CG         9.5990    6.4660   30.4970 C.3   222  ARG222      0.0489
     61  CD        10.3240    6.2360   29.2250 C.3   222  ARG222      0.2205
     62  NE        11.3230    7.2540   28.9660 N.pl3 222  ARG222     -0.0865
     63  CZ        11.6980    7.6100   27.7450 C.cat 222  ARG222      0.5346
     64  NH1       11.1270    7.0300   26.6980 N.pl3 222  ARG222      0.1354
     65  NH2       12.6270    8.5490   27.5780 N.pl3 222  ARG222      0.1354
     66  N         15.0610    2.0010   32.7370 N.3   249  ILE249     -0.1231
     67  CA        14.2640    1.9190   31.5150 C.3   249  ILE249      0.1692
     68  C         14.4480    0.5530   30.8820 C.2   249  ILE249      0.2593
     69  O         15.5760    0.1340   30.6340 O.2   249  ILE249     -0.2718
     70  CB        14.6420    3.0020   30.4830 C.3   249  ILE249      0.0266
     71  CG1       13.5970    3.0420   29.3740 C.3   249  ILE249      0.0019
     72  CG2       16.0250    2.7370   29.9050 C.3   249  ILE249      0.0020
     73  CD1       12.2120    3.4330   29.8640 C.3   249  ILE249      0.0001
     74  N         13.3410   -0.1500   30.6470 N.am  250  THR250     -0.1939
     75  CA        13.4190   -1.4770   30.0640 C.3   250  THR250      0.2028
     76  C         12.6040   -1.5860   28.7840 C.2   250  THR250      0.2643
     77  O         12.7470   -2.5340   28.0260 O.2   250  THR250     -0.2714
     78  CB        12.9140   -2.5580   31.0370 C.3   250  THR250      0.1808
     79  OG1       11.5700   -2.2610   31.4390 O.3   250  THR250     -0.2208
     80  CG2       13.8070   -2.6420   32.2520 C.3   250  THR250      0.0379
     81  N         11.7310   -0.6240   28.5510 N.am  251  GLY251     -0.1939
     82  CA        10.8230   -0.7310   27.4320 C.3   251  GLY251      0.2014
     83  C          9.9460    0.4900   27.3550 C.2   251  GLY251      0.2638
     84  O         10.1290    1.4480   28.1090 O.2   251  GLY251     -0.2714
     85  N          8.9980    0.4580   26.4300 N.am  252  ASN252     -0.1972
     86  CA         8.0810    1.5630   26.2470 C.3   252  ASN252      0.1688
     87  C          6.7150    1.0310   25.8340 C.2   252  ASN252      0.2292
     88  O          6.5990   -0.0660   25.2940 O.2   252  ASN252     -0.2864
     89  CB         8.6180    2.5630   25.2160 C.3   252  ASN252      0.1181
     90  CG        10.0790    2.9420   25.4640 C.2   252  ASN252      0.2629
     91  OD1       10.3680    4.0170   25.9870 O.2   252  ASN252     -0.2716
     92  ND2       11.0050    2.0510   25.0950 N.am  252  ASN252     -0.0877
     93  N          9.9480   14.5170   27.9860 N.3   291  GLN291     -0.1245
     94  CA         9.4650   13.4600   28.8700 C.3   291  GLN291      0.1566
     95  C          8.6860   14.0880   30.0130 C.2   291  GLN291      0.2260
     96  O          9.2600   14.5890   30.9680 O.2   291  GLN291     -0.2867
     97  CB        10.6380   12.6590   29.4070 C.3   291  GLN291      0.0367
     98  CG        11.4980   12.0890   28.3120 C.3   291  GLN291      0.0905
     99  CD        12.8460   11.6500   28.8060 C.2   291  GLN291      0.2608
    100  OE1       13.8740   12.1010   28.2980 O.2   291  GLN291     -0.2717
    101  NE2       12.8600   10.7640   29.8070 N.am  291  GLN291     -0.0878
    102  N         15.1940   15.0010   25.8030 N.3   306  SER306     -0.1217
    103  CA        16.2580   14.5360   24.9280 C.3   306  SER306      0.1889
    104  C         16.3620   15.5210   23.7760 C.2   306  SER306      0.2288
    105  O         15.3490   16.0610   23.3280 O.2   306  SER306     -0.2866
    106  CB        15.9570   13.1340   24.4030 C.3   306  SER306      0.2089
    107  OG        15.5070   12.2790   25.4470 O.3   306  SER306     -0.2183
    108  N         18.3680   14.6610   21.1240 N.3   308  ARG308     -0.1245
    109  CA        18.4920   13.7440   20.0040 C.3   308  ARG308      0.1563
    110  C         17.2220   12.8930   19.9340 C.2   308  ARG308      0.2260
    111  O         16.1870   13.2760   20.4840 O.2   308  ARG308     -0.2867
    112  CB        19.7490   12.8840   20.1600 C.3   308  ARG308      0.0307
    113  CG        20.1350   12.5710   21.6010 C.3   308  ARG308      0.0489
    114  CD        19.2420   11.5060   22.2180 C.3   308  ARG308      0.2205
    115  NE        19.7500   11.0360   23.5050 N.pl3 308  ARG308     -0.0865
    116  CZ        19.1710   10.0890   24.2420 C.cat 308  ARG308      0.5346
    117  NH1       19.7070    9.7270   25.4030 N.pl3 308  ARG308      0.1354
    118  NH2       18.0600    9.4980   23.8230 N.pl3 308  ARG308      0.1354
    119  N         14.7900    9.9850   21.0160 N.3   310  ASP310     -0.1225
    120  CA        14.5710    9.2920   22.2710 C.3   310  ASP310      0.1805
    121  C         14.1150    7.8430   22.0600 C.2   310  ASP310      0.2598
    122  O         13.4220    7.5310   21.0880 O.2   310  ASP310     -0.2718
    123  CB        13.5600   10.0620   23.1230 C.3   310  ASP310      0.1424
    124  CG        13.3080    9.3980   24.4580 C.2   310  ASP310      0.3668
    125  OD1       13.9230    9.8330   25.4580 O.co2 310  ASP310     -0.2456
    126  OD2       12.5240    8.4230   24.4970 O.co2 310  ASP310     -0.2456
    127  N         14.4980    6.9690   22.9860 N.am  311  GLY311     -0.1942
    128  CA        14.2150    5.5350   22.8840 C.3   311  GLY311      0.2014
    129  C         12.7500    5.1830   22.7170 C.2   311  GLY311      0.2639
    130  O         12.4170    4.1510   22.1520 O.2   311  GLY311     -0.2714
    131  N         11.8620    6.0310   23.2160 N.am  312  GLY312     -0.1954
    132  CA        10.4400    5.7290   23.1380 C.3   312  GLY312      0.1869
    133  C          9.9300    5.5970   21.7120 C.2   312  GLY312      0.2309
    134  O          8.8800    4.9780   21.4810 O.2   312  GLY312     -0.2863
    135  N         10.8160    3.8470   19.5800 N.3   314  ASN314     -0.1240
    136  CA        10.7090    2.4260   19.2930 C.3   314  ASN314      0.1653
    137  C          9.2810    1.9120   19.4210 C.2   314  ASN314      0.2266
    138  O          8.9310    0.9120   18.8210 O.2   314  ASN314     -0.2867
    139  CB        11.6740    1.6190   20.1630 C.3   314  ASN314      0.1155
    140  CG        13.1220    1.9660   19.8860 C.2   314  ASN314      0.2627
    141  OD1       13.4730    2.3550   18.7700 O.2   314  ASN314     -0.2716
    142  ND2       13.9670    1.8520   20.9020 N.am  314  ASN314     -0.0877
@<TRIPOS>BOND
     1    20    19    2
     2    19    18    1
     3     1     2    1
     4   141   140    2
     5   138   137    2
     6     4     3    2
     7   136   137    1
     8   136   135    1
     9   136   139    1
    10    18    17    1
    11    18    21    1
    12     2     3    1
    13     2     5    1
    14     3     7   am
    15   140   139    1
    16   140   142   am
    17   110   109    1
    18   110   111    2
    19   109   112    1
    20   109   108    1
    21   112   113    1
    22    21    22    1
    23     9    10    2
    24     9     8    1
    25     5     6    1
    26     7     8    1
    27   119   120    1
    28    13    15   ar
    29    13    12   ar
    30   122   121    2
    31     8    11    1
    32    11    12    1
    33   134   133    2
    34   113   114    1
    35    22    23    1
    36   133   132    1
    37    15    16   ar
    38    12    14   ar
    39    28    29    1
    40   121   120    1
    41   121   127   am
    42   130   129    2
    43   114   115    1
    44    34    35    2
    45    34    33    1
    46   120   123    1
    47    36    33    1
    48    36    37    1
    49    23    24    1
    50    24    25    2
    51    32    33    1
    52    32    30   am
    53   129   128    1
    54   129   131   am
    55   128   127    1
    56    47    48    1
    57    47    44    1
    58    16    14   ar
    59   123   124    1
    60   132   131    1
    61    25    27    1
    62    25    26    1
    63    29    30    1
    64    45    46    2
    65    45    44    1
    66    30    31    2
    67   105   104    2
    68    49    48   ar
    69    49    51   ar
    70   115   116    2
    71    48    50   ar
    72   104   103    1
    73   118   116    1
    74    44    43    1
    75    51    53   ar
    76   116   117    1
    77    43    40   am
    78   106   103    1
    79   106   107    1
    80    38    39    1
    81    50    52   ar
    82   124   126   ar
    83   124   125   ar
    84    53    52   ar
    85    53    54    1
    86   103   102    1
    87    92    90   am
    88    89    90    1
    89    89    86    1
    90    40    39    1
    91    40    41    2
    92    88    87    2
    93    90    91    2
    94    39    42    1
    95    87    86    1
    96    86    85    1
    97    85    83   am
    98    64    63    1
    99    83    82    1
   100    83    84    2
   101    82    81    1
   102    65    63    1
   103    63    62    2
   104    93    94    1
   105    77    76    2
   106   100    99    2
   107    98    99    1
   108    98    97    1
   109    81    76   am
   110    76    75    1
   111    99   101   am
   112    94    97    1
   113    94    95    1
   114    62    61    1
   115    61    60    1
   116    71    73    1
   117    71    70    1
   118    55    56    1
   119    72    70    1
   120    95    96    2
   121    56    57    1
   122    56    59    1
   123    75    74    1
   124    75    78    1
   125    70    67    1
   126    60    59    1
   127    69    68    2
   128    74    68   am
   129    57    58    2
   130    68    67    1
   131    78    79    1
   132    78    80    1
   133    67    66    1
