@<TRIPOS>MOLECULE
tmp/2r7pA00.pdb
 144 135 0 0 0
SMALL
GASTEIGER

@<TRIPOS>ATOM
      1  N         17.5850  -50.2440   22.0880 N.3   105  VAL105     -0.1231
      2  CA        18.4880  -49.0990   22.0990 C.3   105  VAL105      0.1692
      3  C         19.1450  -48.9280   20.7400 C.2   105  VAL105      0.2593
      4  O         19.0710  -49.8240   19.8940 O.2   105  VAL105     -0.2718
      5  CB        19.6180  -49.2690   23.1410 C.3   105  VAL105      0.0266
      6  CG1       19.0460  -49.2180   24.5410 C.3   105  VAL105      0.0020
      7  CG2       20.3630  -50.5850   22.9040 C.3   105  VAL105      0.0020
      8  N         19.7770  -47.7700   20.5370 N.am  106  SER106     -0.1938
      9  CA        20.4940  -47.4700   19.2970 C.3   106  SER106      0.2055
     10  C         21.9680  -47.8350   19.4890 C.2   106  SER106      0.2643
     11  O         22.6740  -47.2390   20.3100 O.2   106  SER106     -0.2714
     12  CB        20.3810  -45.9900   18.9400 C.3   106  SER106      0.2130
     13  OG        21.2530  -45.6760   17.8650 O.3   106  SER106     -0.2179
     14  N         22.4250  -48.8180   18.7210 N.am  107  ILE107     -0.1963
     15  CA        23.7970  -49.2940   18.8220 C.3   107  ILE107      0.1727
     16  C         24.8170  -48.2480   18.4200 C.2   107  ILE107      0.2616
     17  O         25.8670  -48.1380   19.0380 O.2   107  ILE107     -0.2715
     18  CB        23.9940  -50.5830   17.9840 C.3   107  ILE107      0.0290
     19  CG1       23.1050  -51.7000   18.5430 C.3   107  ILE107      0.0022
     20  CG2       25.4370  -51.0340   18.0380 C.3   107  ILE107      0.0023
     21  CD1       23.1910  -52.9850   17.7630 C.3   107  ILE107      0.0001
     22  N         24.5040  -47.4630   17.4020 N.am  108  ARG108     -0.1963
     23  CA        25.4300  -46.4370   16.9610 C.3   108  ARG108      0.1729
     24  C         25.6880  -45.4470   18.0840 C.2   108  ARG108      0.2616
     25  O         26.8190  -44.9820   18.2540 O.2   108  ARG108     -0.2715
     26  CB        24.8910  -45.7270   15.7180 C.3   108  ARG108      0.0348
     27  CG        24.7070  -46.6680   14.5340 C.3   108  ARG108      0.0492
     28  CD        24.2580  -45.9240   13.2920 C.3   108  ARG108      0.2205
     29  NE        23.6850  -46.8000   12.2680 N.pl3 108  ARG108     -0.0865
     30  CZ        22.6450  -47.6070   12.4710 C.cat 108  ARG108      0.5346
     31  NH1       22.0680  -47.6550   13.6690 N.pl3 108  ARG108      0.1354
     32  NH2       22.1710  -48.3540   11.4790 N.pl3 108  ARG108      0.1354
     33  N         24.6480  -45.1430   18.8620 N.am  109  HIS109     -0.1973
     34  CA        24.7780  -44.2160   19.9760 C.3   109  HIS109      0.1656
     35  C         25.6910  -44.8490   21.0310 C.2   109  HIS109      0.2291
     36  O         26.5360  -44.1750   21.6270 O.2   109  HIS109     -0.2864
     37  CB        23.3940  -43.8960   20.5770 C.3   109  HIS109      0.0771
     38  CG        23.4140  -42.8040   21.6110 C.ar  109  HIS109      0.0820
     39  ND1       22.5660  -41.7180   21.5640 N.ar  109  HIS109     -0.2267
     40  CD2       24.1870  -42.6270   22.7120 C.ar  109  HIS109      0.1154
     41  CE1       22.8160  -40.9200   22.5880 C.ar  109  HIS109      0.1986
     42  NE2       23.7960  -41.4490   23.3000 N.ar  109  HIS109     -0.2212
     43  N         19.5550  -35.5880   26.7420 N.3   146  GLU146     -0.1245
     44  CA        20.8960  -35.5750   26.1830 C.3   146  GLU146      0.1567
     45  C         21.3030  -34.1680   25.7780 C.2   146  GLU146      0.2260
     46  O         20.6100  -33.4970   25.0110 O.2   146  GLU146     -0.2867
     47  CB        20.9720  -36.5210   24.9770 C.3   146  GLU146      0.0388
     48  CG        22.2380  -36.3700   24.1430 C.3   146  GLU146      0.1160
     49  CD        22.2790  -37.3120   22.9510 C.2   146  GLU146      0.3649
     50  OE1       21.1920  -37.7220   22.4800 O.co2 146  GLU146     -0.2457
     51  OE2       23.3980  -37.6240   22.4830 O.co2 146  GLU146     -0.2457
     52  N         26.2960  -38.2930   22.3690 N.3   152  GLU152     -0.1245
     53  CA        26.9240  -39.5140   21.8850 C.3   152  GLU152      0.1567
     54  C         28.2790  -39.2200   21.2520 C.2   152  GLU152      0.2260
     55  O         29.0870  -40.1310   21.0360 O.2   152  GLU152     -0.2867
     56  CB        26.0230  -40.2520   20.8900 C.3   152  GLU152      0.0388
     57  CG        25.6100  -39.4510   19.6830 C.3   152  GLU152      0.1160
     58  CD        24.6860  -40.2390   18.7670 C.2   152  GLU152      0.3649
     59  OE1       25.1550  -41.2060   18.1270 O.co2 152  GLU152     -0.2457
     60  OE2       23.4850  -39.9010   18.6930 O.co2 152  GLU152     -0.2457
     61  N         28.9170  -42.6300   11.9020 N.3   170  TYR170     -0.1241
     62  CA        28.3080  -43.9480   11.7360 C.3   170  TYR170      0.1605
     63  C         28.9550  -44.8320   10.6630 C.2   170  TYR170      0.2264
     64  O         28.9240  -46.0610   10.7720 O.2   170  TYR170     -0.2867
     65  CB        26.8090  -43.7750   11.4420 C.3   170  TYR170      0.0534
     66  CG        25.9910  -43.1840   12.5850 C.ar  170  TYR170     -0.0201
     67  CD1       24.7010  -42.6880   12.3660 C.ar  170  TYR170     -0.0009
     68  CD2       26.4920  -43.1510   13.8930 C.ar  170  TYR170     -0.0009
     69  CE1       23.9350  -42.1780   13.4230 C.ar  170  TYR170      0.0417
     70  CE2       25.7390  -42.6470   14.9450 C.ar  170  TYR170      0.0417
     71  CZ        24.4630  -42.1640   14.7090 C.ar  170  TYR170      0.1957
     72  OH        23.7120  -41.6790   15.7660 O.3   170  TYR170     -0.2866
     73  N         28.0980  -51.7940   14.0800 N.3   176  MET176     -0.1245
     74  CA        27.0150  -51.7850   13.1010 C.3   176  MET176      0.1570
     75  C         26.9740  -50.4650   12.3480 C.2   176  MET176      0.2261
     76  O         26.0870  -49.6360   12.5590 O.2   176  MET176     -0.2867
     77  CB        25.6810  -52.0310   13.7940 C.3   176  MET176      0.0387
     78  CG        24.5430  -52.2630   12.8260 C.3   176  MET176      0.0595
     79  SD        23.0020  -52.6010   13.6770 S.3   176  MET176     -0.1393
     80  CE        22.1840  -51.0130   13.4950 C.3   176  MET176      0.0692
     81  N         25.2020  -37.3880    8.2500 N.3   185  GLU185     -0.1245
     82  CA        24.1860  -36.8940    9.1800 C.3   185  GLU185      0.1567
     83  C         24.8650  -36.0960   10.3020 C.2   185  GLU185      0.2260
     84  O         25.9890  -36.4010   10.6970 O.2   185  GLU185     -0.2867
     85  CB        23.3920  -38.0750    9.7610 C.3   185  GLU185      0.0388
     86  CG        22.0760  -37.7030   10.4480 C.3   185  GLU185      0.1160
     87  CD        21.1880  -38.9190   10.7450 C.2   185  GLU185      0.3649
     88  OE1       20.8630  -39.6710    9.8000 O.co2 185  GLU185     -0.2457
     89  OE2       20.8010  -39.1250   11.9170 O.co2 185  GLU185     -0.2457
     90  N         24.2590  -33.8450   14.2090 N.3   187  LYS187     -0.1245
     91  CA        23.4380  -33.7480   15.3970 C.3   187  LYS187      0.1561
     92  C         23.8140  -32.4890   16.1380 C.2   187  LYS187      0.2260
     93  O         24.9940  -32.2220   16.3390 O.2   187  LYS187     -0.2867
     94  CB        23.7110  -34.9680   16.2770 C.3   187  LYS187      0.0271
     95  CG        22.9850  -35.0380   17.6040 C.3   187  LYS187      0.0035
     96  CD        23.1860  -36.4120   18.2080 C.3   187  LYS187      0.0206
     97  CE        22.2550  -36.6330   19.3750 C.3   187  LYS187      0.1093
     98  NZ        22.3480  -38.0050   19.9660 N.3   187  LYS187     -0.1314
     99  N         14.1030  -35.7970   16.4750 N.3   220  HIS220     -0.1241
    100  CA        13.3630  -37.0030   16.8000 C.3   220  HIS220      0.1621
    101  C         12.5610  -36.7290   18.0620 C.2   220  HIS220      0.2264
    102  O         11.8760  -37.6050   18.5890 O.2   220  HIS220     -0.2867
    103  CB        14.3100  -38.1830   16.9580 C.3   220  HIS220      0.0745
    104  CG        14.8850  -38.6420   15.6560 C.ar  220  HIS220      0.0817
    105  ND1       15.8400  -39.6340   15.5600 N.ar  220  HIS220     -0.2268
    106  CD2       14.6330  -38.2460   14.3850 C.ar  220  HIS220      0.1154
    107  CE1       16.1490  -39.8260   14.2900 C.ar  220  HIS220      0.1986
    108  NE2       15.4310  -38.9970   13.5530 N.ar  220  HIS220     -0.2212
    109  N         13.7130  -35.7360   21.2070 N.3   222  LYS222     -0.1245
    110  CA        14.2520  -35.9800   22.5470 C.3   222  LYS222      0.1561
    111  C         15.1960  -34.8790   23.0220 C.2   222  LYS222      0.2260
    112  O         16.0490  -35.1120   23.8890 O.2   222  LYS222     -0.2867
    113  CB        14.9640  -37.3410   22.6200 C.3   222  LYS222      0.0271
    114  CG        14.0980  -38.5360   22.2580 C.3   222  LYS222      0.0035
    115  CD        14.5460  -39.8090   22.9630 C.3   222  LYS222      0.0206
    116  CE        13.9970  -41.0600   22.2800 C.3   222  LYS222      0.1093
    117  NZ        14.9350  -41.6010   21.2370 N.3   222  LYS222     -0.1314
    118  N         17.2950  -32.8940   20.8870 N.3   224  ALA224     -0.1245
    119  CA        18.4220  -32.5580   20.0070 C.3   224  ALA224      0.1562
    120  C         18.0500  -32.5050   18.5210 C.2   224  ALA224      0.2260
    121  O         17.1690  -33.2350   18.0650 O.2   224  ALA224     -0.2867
    122  CB        19.5610  -33.5480   20.2220 C.3   224  ALA224      0.0290
    123  N         18.6660  -32.9720   14.3940 N.3   226  ARG226     -0.1245
    124  CA        19.3200  -33.9340   13.5290 C.3   226  ARG226      0.1563
    125  C         19.3890  -33.2380   12.1770 C.2   226  ARG226      0.2260
    126  O         18.3580  -32.7920   11.6560 O.2   226  ARG226     -0.2867
    127  CB        18.4840  -35.2080   13.4170 C.3   226  ARG226      0.0307
    128  CG        19.2790  -36.4990   13.2830 C.3   226  ARG226      0.0489
    129  CD        19.7260  -37.0010   14.6410 C.3   226  ARG226      0.2205
    130  NE        20.0900  -38.4160   14.6310 N.pl3 226  ARG226     -0.0865
    131  CZ        20.4890  -39.0890   15.7090 C.cat 226  ARG226      0.5346
    132  NH1       20.5760  -38.4830   16.8810 N.pl3 226  ARG226      0.1354
    133  NH2       20.8070  -40.3710   15.6250 N.pl3 226  ARG226      0.1354
    134  N         10.0030  -43.4780   10.6690 N.3   239  ARG239     -0.1245
    135  CA        10.5890  -43.9680   11.9100 C.3   239  ARG239      0.1563
    136  C         10.1140  -43.2460   13.1670 C.2   239  ARG239      0.2260
    137  O          9.8770  -43.8770   14.2000 O.2   239  ARG239     -0.2867
    138  CB        12.1150  -43.8920   11.8380 C.3   239  ARG239      0.0307
    139  CG        12.7130  -44.6600   10.6730 C.3   239  ARG239      0.0489
    140  CD        14.0760  -45.2540   11.0260 C.3   239  ARG239      0.2205
    141  NE        15.0870  -44.2460   11.3460 N.pl3 239  ARG239     -0.0865
    142  CZ        15.6230  -43.4020   10.4670 C.cat 239  ARG239      0.5346
    143  NH1       15.2500  -43.4280    9.1900 N.pl3 239  ARG239      0.1354
    144  NH2       16.5450  -42.5360   10.8700 N.pl3 239  ARG239      0.1354
@<TRIPOS>BOND
     1    81    82    1
     2    82    85    1
     3    82    83    1
     4   143   142    1
     5    85    86    1
     6    88    87   ar
     7    83    84    2
     8    86    87    1
     9   142   144    1
    10   142   141    2
    11    63    64    2
    12    63    62    1
    13   134   135    1
    14   139   140    1
    15   139   138    1
    16    87    89   ar
    17   140   141    1
    18    65    62    1
    19    65    66    1
    20    32    30    1
    21   126   125    2
    22    62    61    1
    23   138   135    1
    24   135   136    1
    25   125   124    1
    26    29    30    2
    27    29    28    1
    28    75    76    2
    29    75    74    1
    30    67    66   ar
    31    67    69   ar
    32    30    31    1
    33    66    68   ar
    34    78    79    1
    35    78    77    1
    36    74    77    1
    37    74    73    1
    38   136   137    2
    39   128   127    1
    40   128   129    1
    41    28    27    1
    42   127   124    1
    43    69    71   ar
    44    80    79    1
    45   124   123    1
    46   108   107   ar
    47   108   106   ar
    48    68    70   ar
    49    90    91    1
    50   107   105   ar
    51   106   104   ar
    52    27    26    1
    53   130   129    1
    54   130   131    2
    55    71    70   ar
    56    71    72    1
    57    91    92    1
    58    91    94    1
    59   105   104   ar
    60   133   131    1
    61   104   103    1
    62   131   132    1
    63    26    23    1
    64    92    93    2
    65    94    95    1
    66    99   100    1
    67   100   103    1
    68   100   101    1
    69    23    22    1
    70    23    24    1
    71    22    16   am
    72    95    96    1
    73    21    19    1
    74    13    12    1
    75    18    20    1
    76    18    19    1
    77    18    15    1
    78   101   102    2
    79   121   120    2
    80    24    25    2
    81    24    33   am
    82    59    58   ar
    83    96    97    1
    84    16    15    1
    85    16    17    2
    86   120   119    1
    87    60    58   ar
    88    14    15    1
    89    14    10   am
    90    58    57    1
    91    33    34    1
    92    12     9    1
    93     9    10    1
    94     9     8    1
    95    97    98    1
    96    10    11    2
    97    57    56    1
    98     4     3    2
    99    34    37    1
   100    34    35    1
   101   119   122    1
   102   119   118    1
   103     8     3   am
   104    37    38    1
   105     3     2    1
   106    56    53    1
   107    35    36    2
   108    55    54    2
   109   109   110    1
   110   117   116    1
   111    54    53    1
   112    39    38   ar
   113    39    41   ar
   114    38    40   ar
   115    53    52    1
   116     1     2    1
   117     2     5    1
   118   114   113    1
   119   114   115    1
   120   116   115    1
   121    50    49   ar
   122    51    49   ar
   123   110   113    1
   124   110   111    1
   125    41    42   ar
   126    40    42   ar
   127     7     5    1
   128    49    48    1
   129   111   112    2
   130     5     6    1
   131    48    47    1
   132    47    44    1
   133    46    45    2
   134    45    44    1
   135    44    43    1
