@<TRIPOS>MOLECULE
tmp/2r80A00.pdb
 224 214 0 0 0
SMALL
GASTEIGER

@<TRIPOS>ATOM
      1  N         52.7490  -13.2590   38.5660 N.3    32  LEU32      -0.1245
      2  CA        51.9390  -12.4070   39.4210 C.3    32  LEU32       0.1561
      3  C         52.7220  -11.9630   40.6210 C.2    32  LEU32       0.2260
      4  O         52.7020  -10.7990   40.9650 O.2    32  LEU32      -0.2867
      5  CB        50.6700  -13.1570   39.8720 C.3    32  LEU32       0.0270
      6  CG        49.7070  -12.3410   40.7390 C.3    32  LEU32       0.0019
      7  CD1       48.9210  -11.3330   39.9410 C.3    32  LEU32       0.0001
      8  CD2       48.7480  -13.2250   41.5240 C.3    32  LEU32       0.0001
      9  N         50.6010   -8.9290   45.8600 N.3    39  THR39      -0.1218
     10  CA        49.7220  -10.1000   45.8240 C.3    39  THR39       0.1862
     11  C         50.2440  -11.2590   46.7140 C.2    39  THR39       0.2287
     12  O         49.4980  -12.1320   47.1010 O.2    39  THR39      -0.2866
     13  CB        49.5320  -10.6050   44.3850 C.3    39  THR39       0.1770
     14  OG1       50.8010  -10.9490   43.8270 O.3    39  THR39      -0.2211
     15  CG2       48.8380   -9.5430   43.5200 C.3    39  THR39       0.0375
     16  N         48.5570  -12.4810   50.1370 N.3    42  TYR42      -0.1227
     17  CA        47.4060  -13.3750   50.2140 C.3    42  TYR42       0.1736
     18  C         47.8490  -14.8000   50.4960 C.2    42  TYR42       0.2595
     19  O         47.0530  -15.6510   50.8070 O.2    42  TYR42      -0.2718
     20  CB        46.5740  -13.3140   48.9290 C.3    42  TYR42       0.0548
     21  CG        45.7140  -12.0870   48.8360 C.ar   42  TYR42      -0.0200
     22  CD1       44.4760  -12.0450   49.4260 C.ar   42  TYR42      -0.0009
     23  CD2       46.1530  -10.9610   48.1680 C.ar   42  TYR42      -0.0009
     24  CE1       43.7070  -10.9360   49.3760 C.ar   42  TYR42       0.0417
     25  CE2       45.3810   -9.8530   48.1060 C.ar   42  TYR42       0.0417
     26  CZ        44.1580   -9.8450   48.7050 C.ar   42  TYR42       0.1957
     27  OH        43.3640   -8.7300   48.6370 O.3    42  TYR42      -0.2866
     28  N         49.1460  -15.0000   50.4470 N.am   43  PHE43      -0.1976
     29  CA        49.6930  -16.3190   50.5430 C.3    43  PHE43       0.1639
     30  C         50.7540  -16.4450   51.6480 C.2    43  PHE43       0.2290
     31  O         51.7990  -17.0030   51.4080 O.2    43  PHE43      -0.2864
     32  CB        50.2460  -16.7600   49.1770 C.3    43  PHE43       0.0560
     33  CG        49.2020  -16.9190   48.1060 C.ar   43  PHE43      -0.0200
     34  CD1       48.6320  -18.1270   47.8520 C.ar   43  PHE43      -0.0042
     35  CD2       48.8530  -15.8580   47.3060 C.ar   43  PHE43      -0.0042
     36  CE1       47.7230  -18.2780   46.8850 C.ar   43  PHE43      -0.0003
     37  CE2       47.9420  -16.0060   46.3310 C.ar   43  PHE43      -0.0003
     38  CZ        47.3660  -17.2200   46.1150 C.ar   43  PHE43      -0.0000
     39  N         50.8110  -18.2730   54.0700 N.3    45  HIS45      -0.1226
     40  CA        50.8940  -19.6700   54.4450 C.3    45  HIS45       0.1752
     41  C         51.5880  -20.5380   53.4030 C.2    45  HIS45       0.2596
     42  O         51.6580  -21.7400   53.5250 O.2    45  HIS45      -0.2718
     43  CB        49.5050  -20.2110   54.7110 C.3    45  HIS45       0.0759
     44  CG        48.5630  -20.0550   53.5640 C.ar   45  HIS45       0.0818
     45  ND1       48.3080  -18.8430   52.9620 N.ar   45  HIS45      -0.2268
     46  CD2       47.8170  -20.9670   52.9050 C.ar   45  HIS45       0.1154
     47  CE1       47.4310  -19.0160   51.9930 C.ar   45  HIS45       0.1986
     48  NE2       47.1360  -20.2960   51.9200 N.ar   45  HIS45      -0.2212
     49  N         52.0490  -19.9110   52.3300 N.am   46  PHE46      -0.1976
     50  CA        52.8200  -20.6160   51.3110 C.3    46  PHE46       0.1639
     51  C         54.2870  -20.3540   51.4190 C.2    46  PHE46       0.2290
     52  O         54.6980  -19.3040   51.8400 O.2    46  PHE46      -0.2864
     53  CB        52.5020  -20.1370   49.9030 C.3    46  PHE46       0.0560
     54  CG        51.3120  -20.7650   49.2740 C.ar   46  PHE46      -0.0200
     55  CD1       51.2340  -20.8150   47.9050 C.ar   46  PHE46      -0.0042
     56  CD2       50.2560  -21.2530   50.0190 C.ar   46  PHE46      -0.0042
     57  CE1       50.1640  -21.3630   47.2980 C.ar   46  PHE46      -0.0003
     58  CE2       49.1870  -21.7840   49.4060 C.ar   46  PHE46      -0.0003
     59  CZ        49.1420  -21.8430   48.0380 C.ar   46  PHE46      -0.0000
     60  N         49.7690  -24.7360   43.2070 N.3    58  HIS58      -0.1241
     61  CA        48.6460  -23.8650   43.2240 C.3    58  HIS58       0.1621
     62  C         48.3160  -23.2680   41.8450 C.2    58  HIS58       0.2264
     63  O         47.1940  -23.2340   41.4510 O.2    58  HIS58      -0.2867
     64  CB        48.8190  -22.7570   44.2550 C.3    58  HIS58       0.0745
     65  CG        47.5850  -21.9690   44.4270 C.ar   58  HIS58       0.0817
     66  ND1       46.4580  -22.5050   44.9920 N.ar   58  HIS58      -0.2268
     67  CD2       47.2590  -20.7210   44.0360 C.ar   58  HIS58       0.1154
     68  CE1       45.4900  -21.6170   44.9510 C.ar   58  HIS58       0.1986
     69  NE2       45.9500  -20.5260   44.3720 N.ar   58  HIS58      -0.2212
     70  N         46.3480  -25.6870   39.9540 N.3    61  LYS61      -0.1231
     71  CA        44.9410  -25.6180   40.3060 C.3    61  LYS61       0.1693
     72  C         44.1710  -24.4460   39.7060 C.2    61  LYS61       0.2591
     73  O         43.0240  -24.5660   39.3710 O.2    61  LYS61      -0.2718
     74  CB        44.7690  -25.6110   41.8180 C.3    61  LYS61       0.0285
     75  CG        45.2850  -26.8930   42.4620 C.3    61  LYS61       0.0035
     76  CD        44.8950  -26.9850   43.8950 C.3    61  LYS61       0.0206
     77  CE        46.1320  -26.8100   44.8010 C.3    61  LYS61       0.1093
     78  NZ        45.8360  -27.0990   46.2260 N.3    61  LYS61      -0.1314
     79  N         44.8070  -23.2940   39.6100 N.am   62  VAL62      -0.1980
     80  CA        44.1960  -22.1380   38.9860 C.3    62  VAL62       0.1595
     81  C         43.8930  -22.4430   37.5230 C.2    62  VAL62       0.2287
     82  O         42.8120  -22.1810   37.0490 O.2    62  VAL62      -0.2864
     83  CB        45.1130  -20.9160   39.1370 C.3    62  VAL62       0.0276
     84  CG1       44.5870  -19.7490   38.3550 C.3    62  VAL62       0.0022
     85  CG2       45.2220  -20.5560   40.5880 C.3    62  VAL62       0.0022
     86  N         40.9830  -24.8310   37.0180 N.3    65  ALA65      -0.1231
     87  CA        39.7070  -24.1360   37.1190 C.3    65  ALA65       0.1694
     88  C         39.3560  -23.4040   35.8440 C.2    65  ALA65       0.2591
     89  O         38.2340  -23.4000   35.4180 O.2    65  ALA65      -0.2718
     90  CB        39.7170  -23.1640   38.3040 C.3    65  ALA65       0.0304
     91  N         40.3360  -22.7760   35.2180 N.am   66  LEU66      -0.1980
     92  CA        40.1000  -22.1670   33.9270 C.3    66  LEU66       0.1596
     93  C         39.6480  -23.1820   32.8740 C.2    66  LEU66       0.2287
     94  O         38.7690  -22.9130   32.0910 O.2    66  LEU66      -0.2864
     95  CB        41.3140  -21.3700   33.4460 C.3    66  LEU66       0.0297
     96  CG        41.7580  -20.1590   34.2640 C.3    66  LEU66       0.0022
     97  CD1       43.0000  -19.5880   33.6320 C.3    66  LEU66       0.0001
     98  CD2       40.6910  -19.1110   34.3750 C.3    66  LEU66       0.0001
     99  N         32.0850  -22.9730   38.8940 N.3    80  LEU80      -0.1245
    100  CA        33.0300  -22.4010   39.8330 C.3    80  LEU80       0.1561
    101  C         32.3340  -21.9060   41.1100 C.2    80  LEU80       0.2260
    102  O         32.7740  -20.9520   41.7460 O.2    80  LEU80      -0.2867
    103  CB        33.7820  -21.2450   39.1740 C.3    80  LEU80       0.0270
    104  CG        34.4530  -21.4520   37.8260 C.3    80  LEU80       0.0019
    105  CD1       35.2890  -20.2510   37.5910 C.3    80  LEU80       0.0001
    106  CD2       35.3220  -22.6650   37.8140 C.3    80  LEU80       0.0001
    107  N         31.8470  -23.1390   44.3800 N.3    82  LYS82      -0.1231
    108  CA        32.5640  -23.1280   45.6470 C.3    82  LYS82       0.1693
    109  C         33.6550  -22.0880   45.6610 C.2    82  LYS82       0.2591
    110  O         33.8910  -21.4210   46.6500 O.2    82  LYS82      -0.2718
    111  CB        33.1800  -24.4850   45.9560 C.3    82  LYS82       0.0285
    112  CG        34.2770  -24.9820   45.0240 C.3    82  LYS82       0.0035
    113  CD        34.6330  -26.4170   45.3920 C.3    82  LYS82       0.0206
    114  CE        36.0300  -26.7860   44.9630 C.3    82  LYS82       0.1093
    115  NZ        36.0900  -26.9760   43.4830 N.3    82  LYS82      -0.1314
    116  N         34.2940  -21.9550   44.5160 N.am   83  LEU83      -0.1980
    117  CA        35.4600  -21.1110   44.3840 C.3    83  LEU83       0.1596
    118  C         35.0900  -19.6330   44.5890 C.2    83  LEU83       0.2287
    119  O         35.8940  -18.8560   45.0650 O.2    83  LEU83      -0.2864
    120  CB        36.0860  -21.3210   43.0170 C.3    83  LEU83       0.0297
    121  CG        36.9150  -22.5920   42.9090 C.3    83  LEU83       0.0022
    122  CD1       37.4440  -22.6440   41.5260 C.3    83  LEU83       0.0001
    123  CD2       38.0350  -22.5870   43.8880 C.3    83  LEU83       0.0001
    124  N         34.6220  -18.8340   48.1940 N.3    86  LEU86      -0.1231
    125  CA        35.9700  -18.8580   48.7280 C.3    86  LEU86       0.1693
    126  C         36.6680  -17.5080   48.5760 C.2    86  LEU86       0.2592
    127  O         37.2480  -17.0040   49.5130 O.2    86  LEU86      -0.2718
    128  CB        36.7960  -19.9720   48.0710 C.3    86  LEU86       0.0284
    129  CG        38.2390  -20.1270   48.5180 C.3    86  LEU86       0.0019
    130  CD1       38.4160  -20.3550   49.9480 C.3    86  LEU86       0.0001
    131  CD2       39.0530  -21.1140   47.6760 C.3    86  LEU86       0.0001
    132  N         36.6120  -16.9500   47.3720 N.am   87  HIS87      -0.1976
    133  CA        37.4070  -15.7710   47.0690 C.3    87  HIS87       0.1656
    134  C         36.8130  -14.4820   47.6110 C.2    87  HIS87       0.2291
    135  O         37.5090  -13.6330   48.0940 O.2    87  HIS87      -0.2864
    136  CB        37.6480  -15.6520   45.5620 C.3    87  HIS87       0.0771
    137  CG        38.7040  -16.5820   45.0500 C.ar   87  HIS87       0.0820
    138  ND1       38.4310  -17.8860   44.7050 N.ar   87  HIS87      -0.2267
    139  CD2       40.0210  -16.3990   44.8260 C.ar   87  HIS87       0.1154
    140  CE1       39.5330  -18.4690   44.2870 C.ar   87  HIS87       0.1986
    141  NE2       40.5160  -17.5890   44.3450 N.ar   87  HIS87      -0.2212
    142  N         38.1540  -15.3730   51.6690 N.3    91  LEU91      -0.1245
    143  CA        39.4520  -14.7510   51.4540 C.3    91  LEU91       0.1561
    144  C         39.4290  -13.2300   51.2880 C.2    91  LEU91       0.2260
    145  O         40.4480  -12.6070   51.4390 O.2    91  LEU91      -0.2867
    146  CB        40.1650  -15.3860   50.2590 C.3    91  LEU91       0.0270
    147  CG        40.4210  -16.8910   50.2540 C.3    91  LEU91       0.0019
    148  CD1       40.9750  -17.2970   48.9230 C.3    91  LEU91       0.0001
    149  CD2       41.3750  -17.2250   51.3570 C.3    91  LEU91       0.0001
    150  N         39.4100  -11.3320   48.6440 N.3    93  VAL93      -0.1245
    151  CA        40.4200  -10.8910   47.6950 C.3    93  VAL93       0.1561
    152  C         39.9630   -9.5570   47.0900 C.2    93  VAL93       0.2260
    153  O         38.8620   -9.4500   46.6330 O.2    93  VAL93      -0.2867
    154  CB        40.6540  -11.9430   46.5700 C.3    93  VAL93       0.0252
    155  CG1       41.6980  -11.4380   45.5710 C.3    93  VAL93       0.0019
    156  CG2       41.1180  -13.3040   47.1660 C.3    93  VAL93       0.0019
    157  N         42.8280   -7.4720   41.9410 N.3    97  ASN97      -0.1225
    158  CA        43.8590   -8.4590   41.7340 C.3    97  ASN97       0.1785
    159  C         43.5010   -9.4960   40.6640 C.2    97  ASN97       0.2597
    160  O         44.3590  -10.1310   40.1030 O.2    97  ASN97      -0.2718
    161  CB        44.2270   -9.1080   43.0700 C.3    97  ASN97       0.1169
    162  CG        44.9920   -8.1750   43.9670 C.2    97  ASN97       0.2627
    163  OD1       45.8060   -7.4070   43.5160 O.2    97  ASN97      -0.2716
    164  ND2       44.7030   -8.2210   45.2320 N.am   97  ASN97      -0.0877
    165  N         42.2210   -9.6340   40.3980 N.am   98  PHE98      -0.1976
    166  CA        41.8040  -10.5490   39.3630 C.3    98  PHE98       0.1639
    167  C         42.2440  -10.1240   37.9690 C.2    98  PHE98       0.2290
    168  O         42.6170  -10.9480   37.1670 O.2    98  PHE98      -0.2864
    169  CB        40.3070  -10.8400   39.4410 C.3    98  PHE98       0.0560
    170  CG        39.9330  -11.6260   40.6410 C.ar   98  PHE98      -0.0200
    171  CD1       39.8110  -12.9940   40.5970 C.ar   98  PHE98      -0.0042
    172  CD2       39.7320  -10.9930   41.8450 C.ar   98  PHE98      -0.0042
    173  CE1       39.5150  -13.6750   41.7210 C.ar   98  PHE98      -0.0003
    174  CE2       39.4250  -11.7010   42.9590 C.ar   98  PHE98      -0.0003
    175  CZ        39.3050  -13.0270   42.8950 C.ar   98  PHE98      -0.0000
    176  N         46.0320  -11.1240   37.6820 N.3   101  LEU101     -0.1231
    177  CA        46.2490  -12.5320   37.3450 C.3   101  LEU101      0.1693
    178  C         45.7830  -12.8850   35.9360 C.2   101  LEU101      0.2592
    179  O         46.4460  -13.5950   35.2230 O.2   101  LEU101     -0.2718
    180  CB        45.6020  -13.4570   38.3890 C.3   101  LEU101      0.0284
    181  CG        45.8000  -14.9560   38.1970 C.3   101  LEU101      0.0019
    182  CD1       47.2350  -15.2970   38.1710 C.3   101  LEU101      0.0001
    183  CD2       45.1050  -15.7140   39.2980 C.3   101  LEU101      0.0001
    184  N         44.6670  -12.3290   35.5080 N.am  102  GLY102     -0.1957
    185  CA        44.2050  -12.6240   34.1730 C.3   102  GLY102      0.1869
    186  C         45.2000  -12.1220   33.1430 C.2   102  GLY102      0.2309
    187  O         45.4920  -12.7620   32.1600 O.2   102  GLY102     -0.2863
    188  N         48.0770  -14.4690   32.8600 N.3   105  PHE105     -0.1241
    189  CA        47.7520  -15.6190   32.0340 C.3   105  PHE105      0.1605
    190  C         47.9470  -15.3030   30.5570 C.2   105  PHE105      0.2264
    191  O         48.4660  -16.1340   29.8050 O.2   105  PHE105     -0.2867
    192  CB        46.3450  -16.1420   32.3340 C.3   105  PHE105      0.0534
    193  CG        46.3300  -17.2200   33.3730 C.ar  105  PHE105     -0.0203
    194  CD1       46.6640  -18.5320   33.0350 C.ar  105  PHE105     -0.0042
    195  CD2       46.0000  -16.9330   34.6850 C.ar  105  PHE105     -0.0042
    196  CE1       46.6680  -19.5500   33.9910 C.ar  105  PHE105     -0.0003
    197  CE2       45.9950  -17.9360   35.6460 C.ar  105  PHE105     -0.0003
    198  CZ        46.3310  -19.2510   35.3000 C.ar  105  PHE105     -0.0000
    199  N         38.8720  -14.3860   30.8740 N.3   129  VAL129     -0.1245
    200  CA        39.4870  -14.3000   32.1920 C.3   129  VAL129      0.1561
    201  C         38.7710  -13.2630   33.0560 C.2   129  VAL129      0.2260
    202  O         38.6890  -13.4160   34.2720 O.2   129  VAL129     -0.2867
    203  CB        41.0270  -14.0950   32.1500 C.3   129  VAL129      0.0252
    204  CG1       41.6800  -15.3070   31.4870 C.3   129  VAL129      0.0019
    205  CG2       41.4200  -12.7570   31.4670 C.3   129  VAL129      0.0019
    206  N         35.5630  -14.9360   34.3380 N.3   132  VAL132     -0.1231
    207  CA        35.8900  -15.8010   35.4620 C.3   132  VAL132      0.1692
    208  C         36.1100  -14.9910   36.7500 C.2   132  VAL132      0.2592
    209  O         35.5460  -15.3210   37.8060 O.2   132  VAL132     -0.2718
    210  CB        37.0980  -16.7010   35.1110 C.3   132  VAL132      0.0266
    211  CG1       37.6220  -17.4350   36.3340 C.3   132  VAL132      0.0020
    212  CG2       36.7150  -17.6730   33.9970 C.3   132  VAL132      0.0020
    213  N         36.8800  -13.9070   36.6480 N.am  133  GLY133     -0.1957
    214  CA        37.1380  -13.0080   37.7780 C.3   133  GLY133      0.1869
    215  C         35.8600  -12.4050   38.3310 C.2   133  GLY133      0.2309
    216  O         35.7050  -12.2710   39.5520 O.2   133  GLY133     -0.2863
    217  N         33.9590  -15.0370   40.2710 N.3   136  LEU136     -0.1245
    218  CA        34.6070  -15.3300   41.5490 C.3   136  LEU136      0.1561
    219  C         34.3950  -14.2370   42.5870 C.2   136  LEU136      0.2260
    220  O         34.5430  -14.4820   43.7820 O.2   136  LEU136     -0.2867
    221  CB        36.0960  -15.6190   41.3560 C.3   136  LEU136      0.0270
    222  CG        36.4390  -16.9130   40.6110 C.3   136  LEU136      0.0019
    223  CD1       37.9490  -17.0020   40.4410 C.3   136  LEU136      0.0001
    224  CD2       35.9110  -18.1560   41.3230 C.3   136  LEU136      0.0001
@<TRIPOS>BOND
     1   191   190    2
     2   190   189    1
     3   199   200    1
     4   205   203    1
     5   204   203    1
     6   189   192    1
     7   189   188    1
     8    94    93    2
     9   203   200    1
    10   187   186    2
    11   200   201    1
    12   192   193    1
    13    93    92    1
    14   194   193   ar
    15   194   196   ar
    16   201   202    2
    17   186   185    1
    18   193   195   ar
    19    95    92    1
    20    95    96    1
    21    97    96    1
    22    92    91    1
    23   196   198   ar
    24   212   210    1
    25   185   184    1
    26    96    98    1
    27   206   207    1
    28   195   197   ar
    29   210   207    1
    30   210   211    1
    31    91    88   am
    32   179   178    2
    33   198   197   ar
    34    89    88    2
    35   207   208    1
    36   184   178   am
    37    88    87    1
    38   178   177    1
    39   213   208   am
    40   213   214    1
    41   208   209    2
    42    86    87    1
    43    82    81    2
    44    87    90    1
    45   168   167    2
    46   177   176    1
    47   177   180    1
    48    81    80    1
    49   105   104    1
    50   214   215    1
    51   106   104    1
    52   104   103    1
    53   167   166    1
    54   182   181    1
    55   181   180    1
    56   181   183    1
    57   215   216    2
    58    84    83    1
    59     1     2    1
    60    99   100    1
    61    80    83    1
    62    80    79    1
    63    83    85    1
    64   103   100    1
    65   166   169    1
    66   166   165    1
    67    73    72    2
    68     2     5    1
    69     2     3    1
    70   169   170    1
    71    79    72   am
    72    72    71    1
    73   100   101    1
    74     5     6    1
    75     7     6    1
    76    70    71    1
    77   160   159    2
    78   217   218    1
    79    71    74    1
    80   165   159   am
    81   223   222    1
    82   171   170   ar
    83   171   173   ar
    84   222   224    1
    85   222   221    1
    86     3     4    2
    87   170   172   ar
    88   159   158    1
    89     6     8    1
    90   101   102    2
    91   221   218    1
    92    63    62    2
    93   122   121    1
    94   218   219    1
    95   173   175   ar
    96   158   157    1
    97   158   161    1
    98    74    75    1
    99    62    61    1
   100   172   174   ar
   101    75    76    1
   102   219   220    2
   103   175   174   ar
   104   121   120    1
   105   121   123    1
   106   120   117    1
   107   161   162    1
   108    60    61    1
   109    61    64    1
   110   115   114    1
   111   163   162    2
   112    15    13    1
   113    14    13    1
   114    76    77    1
   115   162   164   am
   116    67    69   ar
   117    67    65   ar
   118    64    65    1
   119   140   141   ar
   120   140   138   ar
   121   141   139   ar
   122    69    68   ar
   123   107   108    1
   124   117   116    1
   125   117   118    1
   126    13    10    1
   127    65    66   ar
   128   116   109   am
   129   118   119    2
   130   138   137   ar
   131    77    78    1
   132   139   137   ar
   133    68    66   ar
   134   114   113    1
   135   112   113    1
   136   112   111    1
   137   137   136    1
   138   136   133    1
   139   155   154    1
   140   108   109    1
   141   108   111    1
   142   109   110    2
   143    10     9    1
   144    10    11    1
   145    38    37   ar
   146    38    36   ar
   147    37    35   ar
   148   154   156    1
   149   154   151    1
   150   153   152    2
   151    11    12    2
   152    36    34   ar
   153   133   132    1
   154   133   134    1
   155   152   151    1
   156    57    55   ar
   157    57    59   ar
   158    35    33   ar
   159   132   126   am
   160   134   135    2
   161   131   129    1
   162   151   150    1
   163    34    33   ar
   164    55    54   ar
   165    59    58   ar
   166   128   129    1
   167   128   125    1
   168    25    23   ar
   169    25    26   ar
   170    33    32    1
   171    23    21   ar
   172   124   125    1
   173   129   130    1
   174   126   125    1
   175   126   127    2
   176    27    26    1
   177    26    24   ar
   178    21    20    1
   179    21    22   ar
   180   148   147    1
   181    20    17    1
   182    32    29    1
   183    54    53    1
   184    54    56   ar
   185    24    22   ar
   186    58    56   ar
   187    53    50    1
   188    16    17    1
   189    17    18    1
   190   147   146    1
   191   147   149    1
   192   146   143    1
   193    28    18   am
   194    28    29    1
   195    18    19    2
   196    29    30    1
   197   144   145    2
   198   144   143    1
   199    50    51    1
   200    50    49    1
   201    31    30    2
   202    51    52    2
   203   143   142    1
   204    48    47   ar
   205    48    46   ar
   206    47    45   ar
   207    49    41   am
   208    46    44   ar
   209    45    44   ar
   210    41    42    2
   211    41    40    1
   212    44    43    1
   213    39    40    1
   214    40    43    1
