@<TRIPOS>MOLECULE
tmp/2r80D00.pdb
 203 194 0 0 0
SMALL
GASTEIGER

@<TRIPOS>ATOM
      1  N         32.8510    2.2930   54.1340 N.3    31  LEU31      -0.1245
      2  CA        33.8990    1.5890   53.4060 C.3    31  LEU31       0.1561
      3  C         33.7820    0.0800   53.6030 C.2    31  LEU31       0.2260
      4  O         33.8240   -0.6800   52.6800 O.2    31  LEU31      -0.2867
      5  CB        35.2760    2.0560   53.8810 C.3    31  LEU31       0.0270
      6  CG        36.4740    1.4320   53.1670 C.3    31  LEU31       0.0019
      7  CD1       36.5530    2.0480   51.7620 C.3    31  LEU31       0.0001
      8  CD2       37.7090    1.7280   53.9420 C.3    31  LEU31       0.0001
      9  N         37.4650   -4.7460   51.9330 N.3    38  THR38      -0.1218
     10  CA        38.2760   -3.8870   52.8120 C.3    38  THR38       0.1862
     11  C         38.3050   -4.3630   54.2720 C.2    38  THR38       0.2287
     12  O         39.2000   -4.0110   55.0320 O.2    38  THR38      -0.2866
     13  CB        37.8460   -2.3980   52.7410 C.3    38  THR38       0.1770
     14  OG1       36.5060   -2.2410   53.2500 O.3    38  THR38      -0.2211
     15  CG2       37.9380   -1.8710   51.2840 C.3    38  THR38       0.0375
     16  N         41.5390   -5.8390   55.8850 N.3    41  PHE41      -0.1227
     17  CA        42.5900   -5.0250   56.5040 C.3    41  PHE41       0.1736
     18  C         42.3720   -4.7360   57.9860 C.2    41  PHE41       0.2595
     19  O         43.2700   -4.2330   58.6500 O.2    41  PHE41      -0.2718
     20  CB        42.7370   -3.7040   55.7490 C.3    41  PHE41       0.0547
     21  CG        43.1960   -3.8590   54.3310 C.ar   41  PHE41      -0.0202
     22  CD1       42.2770   -3.7640   53.2930 C.ar   41  PHE41      -0.0042
     23  CD2       44.5480   -4.0930   54.0380 C.ar   41  PHE41      -0.0042
     24  CE1       42.6820   -3.8870   51.9600 C.ar   41  PHE41      -0.0003
     25  CE2       44.9580   -4.2310   52.7000 C.ar   41  PHE41      -0.0003
     26  CZ        44.0280   -4.1160   51.6680 C.ar   41  PHE41      -0.0000
     27  N         41.1750   -5.0430   58.4840 N.am   42  PHE42      -0.1976
     28  CA        40.7550   -4.6580   59.8360 C.3    42  PHE42       0.1639
     29  C         40.3540   -5.8500   60.7020 C.2    42  PHE42       0.2290
     30  O         39.4190   -5.7610   61.5110 O.2    42  PHE42      -0.2864
     31  CB        39.6060   -3.6350   59.7450 C.3    42  PHE42       0.0560
     32  CG        39.9930   -2.3390   59.0750 C.ar   42  PHE42      -0.0200
     33  CD1       39.7540   -2.1410   57.7180 C.ar   42  PHE42      -0.0042
     34  CD2       40.5930   -1.3140   59.8080 C.ar   42  PHE42      -0.0042
     35  CE1       40.1150   -0.9470   57.1050 C.ar   42  PHE42      -0.0003
     36  CE2       40.9600   -0.1160   59.1850 C.ar   42  PHE42      -0.0003
     37  CZ        40.7070    0.0590   57.8360 C.ar   42  PHE42      -0.0000
     38  N         41.6870   -7.1570   63.3000 N.3    44  SER44      -0.1202
     39  CA        41.8330   -6.9340   64.7430 C.3    44  SER44       0.2020
     40  C         40.7520   -6.0290   65.3700 C.2    44  SER44       0.2618
     41  O         40.7790   -5.7580   66.5800 O.2    44  SER44      -0.2717
     42  CB        43.2200   -6.3500   65.0270 C.3    44  SER44       0.2103
     43  OG        43.3080   -5.0380   64.4980 O.3    44  SER44      -0.2182
     44  N         39.8050   -5.5600   64.5540 N.am   45  PHE45      -0.1975
     45  CA        38.7740   -4.6350   65.0380 C.3    45  PHE45       0.1639
     46  C         37.5550   -5.3250   65.6820 C.2    45  PHE45       0.2290
     47  O         36.6210   -4.6640   66.1540 O.2    45  PHE45      -0.2864
     48  CB        38.3420   -3.6910   63.9000 C.3    45  PHE45       0.0560
     49  CG        39.2700   -2.5110   63.6940 C.ar   45  PHE45      -0.0200
     50  CD1       38.7570   -1.2700   63.3450 C.ar   45  PHE45      -0.0042
     51  CD2       40.6520   -2.6370   63.8470 C.ar   45  PHE45      -0.0042
     52  CE1       39.6010   -0.1780   63.1520 C.ar   45  PHE45      -0.0003
     53  CE2       41.5060   -1.5440   63.6580 C.ar   45  PHE45      -0.0003
     54  CZ        40.9710   -0.3110   63.3140 C.ar   45  PHE45      -0.0000
     55  N         38.5930    4.4190   64.9830 N.3    63  HIS63      -0.1241
     56  CA        39.5030    4.5620   63.8590 C.3    63  HIS63       0.1621
     57  C         39.0050    5.5710   62.8250 C.2    63  HIS63       0.2264
     58  O         39.7930    6.3630   62.2940 O.2    63  HIS63      -0.2867
     59  CB        39.7700    3.2290   63.1850 C.3    63  HIS63       0.0745
     60  CG        40.8450    3.3100   62.1540 C.ar   63  HIS63       0.0817
     61  ND1       42.1720    3.4570   62.4850 N.ar   63  HIS63      -0.2268
     62  CD2       40.7840    3.3550   60.8030 C.ar   63  HIS63       0.1154
     63  CE1       42.8880    3.5530   61.3780 C.ar   63  HIS63       0.1986
     64  NE2       42.0710    3.5010   60.3430 N.ar   63  HIS63      -0.2212
     65  N         40.0880    8.9910   63.5870 N.3    66  LYS66      -0.1231
     66  CA        41.5030    9.2160   63.2460 C.3    66  LYS66       0.1693
     67  C         41.6700    9.5070   61.7580 C.2    66  LYS66       0.2591
     68  O         42.4020   10.4140   61.3730 O.2    66  LYS66      -0.2718
     69  CB        42.3690    8.0150   63.6520 C.3    66  LYS66       0.0285
     70  CG        42.3940    7.8050   65.1330 C.3    66  LYS66       0.0035
     71  CD        43.2920    6.6570   65.5450 C.3    66  LYS66       0.0206
     72  CE        43.2750    6.5130   67.0590 C.3    66  LYS66       0.1093
     73  NZ        44.5670    5.9670   67.5960 N.3    66  LYS66      -0.1314
     74  N         40.9480    8.7550   60.9270 N.am   67  VAL67      -0.1980
     75  CA        41.0340    8.9270   59.4740 C.3    67  VAL67       0.1595
     76  C         40.5570   10.3370   59.0930 C.2    67  VAL67       0.2287
     77  O         41.2330   11.0430   58.3360 O.2    67  VAL67      -0.2864
     78  CB        40.2380    7.8280   58.7410 C.3    67  VAL67       0.0276
     79  CG1       40.2490    8.0410   57.2130 C.3    67  VAL67       0.0022
     80  CG2       40.7780    6.4580   59.1190 C.3    67  VAL67       0.0022
     81  N         42.8980   13.0480   59.9910 N.3    70  SER70      -0.1202
     82  CA        43.9760   13.0500   59.0060 C.3    70  SER70       0.2020
     83  C         43.5790   13.8500   57.7650 C.2    70  SER70       0.2618
     84  O         44.3500   14.6880   57.2930 O.2    70  SER70      -0.2717
     85  CB        44.3880   11.6200   58.6460 C.3    70  SER70       0.2103
     86  OG        45.5040   11.6310   57.7890 O.3    70  SER70      -0.2182
     87  N         42.3690   13.6210   57.2490 N.am   71  PHE71      -0.1975
     88  CA        41.8800   14.4590   56.1590 C.3    71  PHE71       0.1639
     89  C         41.9430   15.9460   56.5450 C.2    71  PHE71       0.2290
     90  O         42.2310   16.8010   55.6990 O.2    71  PHE71      -0.2864
     91  CB        40.4570   14.0620   55.7330 C.3    71  PHE71       0.0560
     92  CG        40.3980   12.9450   54.7080 C.ar   71  PHE71      -0.0200
     93  CD1       40.0470   11.6530   55.0870 C.ar   71  PHE71      -0.0042
     94  CD2       40.6750   13.1940   53.3650 C.ar   71  PHE71      -0.0042
     95  CE1       39.9840   10.6220   54.1500 C.ar   71  PHE71      -0.0003
     96  CE2       40.6010   12.1640   52.4170 C.ar   71  PHE71      -0.0003
     97  CZ        40.2550   10.8850   52.8090 C.ar   71  PHE71      -0.0000
     98  N         51.3230   13.5340   53.9950 N.3    85  PHE85      -0.1241
     99  CA        50.9630   12.1280   53.9320 C.3    85  PHE85       0.1605
    100  C         52.0970   11.1410   53.6350 C.2    85  PHE85       0.2264
    101  O         51.8500    9.9400   53.4810 O.2    85  PHE85      -0.2867
    102  CB        49.7850   11.9520   52.9730 C.3    85  PHE85       0.0534
    103  CG        48.5190   12.5120   53.5190 C.ar   85  PHE85      -0.0203
    104  CD1       48.1630   13.8350   53.2650 C.ar   85  PHE85      -0.0042
    105  CD2       47.7010   11.7370   54.3570 C.ar   85  PHE85      -0.0042
    106  CE1       47.0010   14.3770   53.8150 C.ar   85  PHE85      -0.0003
    107  CE2       46.5400   12.2690   54.9070 C.ar   85  PHE85      -0.0003
    108  CZ        46.1840   13.5850   54.6280 C.ar   85  PHE85      -0.0000
    109  N         52.2930    8.3110   56.3290 N.3    88  LEU88      -0.1245
    110  CA        51.1260    7.4460   56.1440 C.3    88  LEU88       0.1561
    111  C         51.1940    6.6220   54.8530 C.2    88  LEU88       0.2260
    112  O         50.6650    5.4900   54.7910 O.2    88  LEU88      -0.2867
    113  CB        49.8180    8.2340   56.2480 C.3    88  LEU88       0.0270
    114  CG        49.4730    8.6870   57.6720 C.3    88  LEU88       0.0019
    115  CD1       48.4150    9.7990   57.6480 C.3    88  LEU88       0.0001
    116  CD2       49.0010    7.5240   58.5590 C.3    88  LEU88       0.0001
    117  N         53.0820    3.4900   55.7200 N.3    91  LEU91      -0.1231
    118  CA        52.2130    2.5650   56.4300 C.3    91  LEU91       0.1693
    119  C         51.2560    1.8610   55.4750 C.2    91  LEU91       0.2592
    120  O         51.1440    0.6380   55.5070 O.2    91  LEU91      -0.2718
    121  CB        51.4210    3.2960   57.5070 C.3    91  LEU91       0.0284
    122  CG        50.3460    2.5250   58.2650 C.3    91  LEU91       0.0019
    123  CD1       50.9270    1.3640   59.0530 C.3    91  LEU91       0.0001
    124  CD2       49.5850    3.4700   59.1720 C.3    91  LEU91       0.0001
    125  N         50.5580    2.6360   54.6440 N.am   92  HIS92      -0.1976
    126  CA        49.5100    2.0520   53.8010 C.3    92  HIS92       0.1656
    127  C         50.0480    1.2290   52.6550 C.2    92  HIS92       0.2291
    128  O         49.4370    0.2260   52.2900 O.2    92  HIS92      -0.2864
    129  CB        48.5370    3.1240   53.2920 C.3    92  HIS92       0.0771
    130  CG        47.6260    3.6490   54.3550 C.ar   92  HIS92       0.0820
    131  ND1       48.0150    4.6290   55.2360 N.ar   92  HIS92      -0.2267
    132  CD2       46.3540    3.3210   54.6910 C.ar   92  HIS92       0.1154
    133  CE1       47.0200    4.8950   56.0680 C.ar   92  HIS92       0.1986
    134  NE2       45.9980    4.1050   55.7660 N.ar   92  HIS92      -0.2212
    135  N         50.9790   -2.2080   54.8470 N.3    96  LEU96      -0.1245
    136  CA        49.6140   -2.7380   54.7610 C.3    96  LEU96       0.1561
    137  C         49.2510   -3.2790   53.3740 C.2    96  LEU96       0.2260
    138  O         48.2960   -4.0600   53.2480 O.2    96  LEU96      -0.2867
    139  CB        48.6210   -1.6440   55.1590 C.3    96  LEU96       0.0270
    140  CG        48.1340   -1.4350   56.5970 C.3    96  LEU96       0.0019
    141  CD1       48.8450   -2.2440   57.6960 C.3    96  LEU96       0.0001
    142  CD2       47.9890    0.0210   56.9590 C.3    96  LEU96       0.0001
    143  N         47.7850   -1.8270   50.8480 N.3    98  VAL98      -0.1245
    144  CA        46.4560   -1.4290   50.3800 C.3    98  VAL98       0.1561
    145  C         46.5180   -0.9790   48.9200 C.2    98  VAL98       0.2260
    146  O         47.2500   -0.0540   48.5900 O.2    98  VAL98      -0.2867
    147  CB        45.8840   -0.2740   51.2370 C.3    98  VAL98       0.0252
    148  CG1       44.5320    0.1630   50.6820 C.3    98  VAL98       0.0019
    149  CG2       45.7340   -0.6940   52.6990 C.3    98  VAL98       0.0019
    150  N         41.4480    1.5430   46.5080 N.3   102  ASN102     -0.1225
    151  CA        40.6830    1.6910   47.7380 C.3   102  ASN102      0.1785
    152  C         40.7390    3.0900   48.3140 C.2   102  ASN102      0.2597
    153  O         39.7930    3.4920   48.9670 O.2   102  ASN102     -0.2718
    154  CB        41.1080    0.6320   48.7510 C.3   102  ASN102      0.1169
    155  CG        41.0020   -0.7650   48.1810 C.2   102  ASN102      0.2627
    156  OD1       42.0230   -1.4470   48.0000 O.2   102  ASN102     -0.2716
    157  ND2       39.7860   -1.1760   47.8480 N.am  102  ASN102     -0.0877
    158  N         41.8360    3.8150   48.0710 N.am  103  PHE103     -0.1976
    159  CA        41.9180    5.2140   48.5030 C.3   103  PHE103      0.1639
    160  C         40.9020    6.0450   47.7260 C.2   103  PHE103      0.2290
    161  O         40.2560    6.9230   48.2940 O.2   103  PHE103     -0.2864
    162  CB        43.3110    5.8250   48.2600 C.3   103  PHE103      0.0560
    163  CG        44.4740    5.0580   48.8660 C.ar  103  PHE103     -0.0200
    164  CD1       44.3550    4.2580   50.0060 C.ar  103  PHE103     -0.0042
    165  CD2       45.7310    5.2200   48.3160 C.ar  103  PHE103     -0.0042
    166  CE1       45.4710    3.5820   50.5380 C.ar  103  PHE103     -0.0003
    167  CE2       46.8490    4.5590   48.8440 C.ar  103  PHE103     -0.0003
    168  CZ        46.7260    3.7430   49.9440 C.ar  103  PHE103     -0.0000
    169  N         37.3900    5.2190   49.2560 N.3   106  LEU106     -0.1245
    170  CA        37.1790    5.9500   50.5090 C.3   106  LEU106      0.1561
    171  C         36.9000    7.4230   50.2430 C.2   106  LEU106      0.2260
    172  O         36.0280    8.0060   50.8780 O.2   106  LEU106     -0.2867
    173  CB        38.3590    5.7650   51.4730 C.3   106  LEU106      0.0270
    174  CG        38.1880    6.4720   52.8290 C.3   106  LEU106      0.0019
    175  CD1       36.8940    6.0030   53.5360 C.3   106  LEU106      0.0001
    176  CD2       39.3810    6.2240   53.7170 C.3   106  LEU106      0.0001
    177  N         40.1480   14.7940   47.7540 N.3   134  VAL134     -0.1245
    178  CA        40.3200   13.3760   48.0480 C.3   134  VAL134      0.1561
    179  C         41.2190   12.6500   47.0420 C.2   134  VAL134      0.2260
    180  O         41.8950   11.7250   47.3960 O.2   134  VAL134     -0.2867
    181  CB        38.9730   12.6540   48.3250 C.3   134  VAL134      0.0252
    182  CG1       38.2560   13.3160   49.4630 C.3   134  VAL134      0.0019
    183  CG2       38.1090   12.6410   47.1050 C.3   134  VAL134      0.0019
    184  N         44.8470   13.7280   48.0430 N.3   137  VAL137     -0.1231
    185  CA        45.2170   12.8940   49.1900 C.3   137  VAL137      0.1692
    186  C         45.5320   11.4430   48.7890 C.2   137  VAL137      0.2591
    187  O         46.5670   10.9040   49.1820 O.2   137  VAL137     -0.2718
    188  CB        44.1360   12.9240   50.2880 C.3   137  VAL137      0.0266
    189  CG1       44.4220   11.8860   51.4000 C.3   137  VAL137      0.0020
    190  CG2       44.0370   14.3020   50.8800 C.3   137  VAL137      0.0020
    191  N         44.6540   10.8340   47.9870 N.am  138  ALA138     -0.1980
    192  CA        44.8760    9.4790   47.4880 C.3   138  ALA138      0.1597
    193  C         46.2060    9.3560   46.7530 C.2   138  ALA138      0.2287
    194  O         46.9470    8.4050   46.9620 O.2   138  ALA138     -0.2864
    195  CB        43.7470    9.0530   46.5620 C.3   138  ALA138      0.0319
    196  N         48.9910    9.4580   49.2930 N.3   141  LEU141     -0.1245
    197  CA        49.0860    8.1920   50.0130 C.3   141  LEU141      0.1561
    198  C         49.7010    7.0800   49.1840 C.2   141  LEU141      0.2260
    199  O         50.3230    6.1680   49.7320 O.2   141  LEU141     -0.2867
    200  CB        47.7160    7.7470   50.5090 C.3   141  LEU141      0.0270
    201  CG        47.3180    8.2570   51.8780 C.3   141  LEU141      0.0019
    202  CD1       45.9330    7.7820   52.1400 C.3   141  LEU141      0.0001
    203  CD2       48.2590    7.7140   52.9600 C.3   141  LEU141      0.0001
@<TRIPOS>BOND
     1   150   151    1
     2   195   192    1
     3   193   194    2
     4   193   192    1
     5   179   180    2
     6   179   178    1
     7   183   181    1
     8   192   191    1
     9   160   161    2
    10   160   159    1
    11   151   152    1
    12   151   154    1
    13   177   178    1
    14   157   155   am
    15   191   186   am
    16   156   155    2
    17   184   185    1
    18   178   181    1
    19   158   152   am
    20   158   159    1
    21   155   154    1
    22   162   159    1
    23   162   163    1
    24   152   153    2
    25   165   167   ar
    26   165   163   ar
    27   181   182    1
    28   146   145    2
    29   186   187    2
    30   186   185    1
    31   167   168   ar
    32   163   164   ar
    33   145   144    1
    34   198   199    2
    35   198   197    1
    36   185   188    1
    37   169   170    1
    38   196   197    1
    39   168   166   ar
    40   164   166   ar
    41   197   200    1
    42   171   170    1
    43   171   172    2
    44   188   190    1
    45   188   189    1
    46   144   143    1
    47   144   147    1
    48   170   173    1
    49   200   201    1
    50   148   147    1
    51   147   149    1
    52    15    13    1
    53   173   174    1
    54    26    24   ar
    55    26    25   ar
    56     7     6    1
    57   201   202    1
    58   201   203    1
    59     9    10    1
    60    24    22   ar
    61   128   127    2
    62    96    97   ar
    63    96    94   ar
    64   127   126    1
    65     4     3    2
    66    25    23   ar
    67    13    10    1
    68    13    14    1
    69    97    95   ar
    70    10    11    1
    71   174   175    1
    72   174   176    1
    73   102   103    1
    74   102    99    1
    75     6     5    1
    76     6     8    1
    77   138   137    2
    78   104   103   ar
    79   104   106   ar
    80   129   126    1
    81   129   130    1
    82    22    21   ar
    83    94    92   ar
    84   137   136    1
    85     2     3    1
    86     2     5    1
    87     2     1    1
    88   101   100    2
    89   103   105   ar
    90   100    99    1
    91   126   125    1
    92   106   108   ar
    93    99    98    1
    94    23    21   ar
    95    95    93   ar
    96    11    12    2
    97    21    20    1
    98   130   132   ar
    99   130   131   ar
   100   105   107   ar
   101   108   107   ar
   102   125   119   am
   103   132   134   ar
   104    92    93   ar
   105    92    91    1
   106   136   135    1
   107   136   139    1
   108   112   111    2
   109   111   110    1
   110   139   140    1
   111   131   133   ar
   112   119   120    2
   113   119   118    1
   114    90    89    2
   115   117   118    1
   116    91    88    1
   117    20    17    1
   118   134   133   ar
   119    16    17    1
   120   110   113    1
   121   110   109    1
   122    88    89    1
   123    88    87    1
   124   113   114    1
   125   118   121    1
   126    17    18    1
   127   140   142    1
   128   140   141    1
   129    35    33   ar
   130    35    37   ar
   131    79    78    1
   132    87    83   am
   133    84    83    2
   134   121   122    1
   135   115   114    1
   136   114   116    1
   137    33    32   ar
   138    83    82    1
   139    86    85    1
   140    37    36   ar
   141    18    27   am
   142    18    19    2
   143   122   123    1
   144   122   124    1
   145    77    76    2
   146    27    28    1
   147    85    82    1
   148    78    80    1
   149    78    75    1
   150    82    81    1
   151    32    31    1
   152    32    34   ar
   153    76    75    1
   154    36    34   ar
   155    75    74    1
   156    31    28    1
   157    28    29    1
   158    64    62   ar
   159    64    63   ar
   160    29    30    2
   161    62    60   ar
   162    74    67   am
   163    68    67    2
   164    63    61   ar
   165    67    66    1
   166    60    61   ar
   167    60    59    1
   168    58    57    2
   169    57    56    1
   170    52    54   ar
   171    52    50   ar
   172    59    56    1
   173    66    65    1
   174    66    69    1
   175    38    39    1
   176    54    53   ar
   177    50    49   ar
   178    69    70    1
   179    53    51   ar
   180    49    51   ar
   181    49    48    1
   182    56    55    1
   183    48    45    1
   184    43    42    1
   185    44    45    1
   186    44    40   am
   187    39    42    1
   188    39    40    1
   189    45    46    1
   190    70    71    1
   191    40    41    2
   192    71    72    1
   193    46    47    2
   194    72    73    1
