@<TRIPOS>MOLECULE
tmp/2r84B01.pdb
 99 94 0 0 0
SMALL
GASTEIGER

@<TRIPOS>ATOM
      1  N         46.5820   53.0940   70.6630 N.3    10  SER10      -0.1202
      2  CA        47.1800   52.5130   71.8670 C.3    10  SER10       0.2020
      3  C         47.0950   50.9890   71.8040 C.2    10  SER10       0.2618
      4  O         46.5170   50.4330   70.8640 O.2    10  SER10      -0.2717
      5  CB        46.4660   53.0180   73.1270 C.3    10  SER10       0.2103
      6  OG        47.2140   52.7140   74.2930 O.3    10  SER10      -0.2182
      7  N         47.6840   50.3310   72.8060 N.am   11  HIS11      -0.1975
      8  CA        47.5260   48.8890   73.0570 C.3    11  HIS11       0.1656
      9  C         48.2330   47.9550   72.0650 C.2    11  HIS11       0.2291
     10  O         49.1540   47.2270   72.4460 O.2    11  HIS11      -0.2864
     11  CB        46.0460   48.5090   73.1820 C.3    11  HIS11       0.0771
     12  CG        45.8220   47.1150   73.6760 C.ar   11  HIS11       0.0820
     13  ND1       45.6840   46.0380   72.8280 N.ar   11  HIS11      -0.2267
     14  CD2       45.7200   46.6230   74.9330 C.ar   11  HIS11       0.1154
     15  CE1       45.5000   44.9410   73.5420 C.ar   11  HIS11       0.1986
     16  NE2       45.5170   45.2690   74.8220 N.ar   11  HIS11      -0.2212
     17  N         42.2720   46.1280   74.0090 N.3    70  GLY70      -0.1210
     18  CA        42.1500   46.3460   75.4510 C.3    70  GLY70       0.1956
     19  C         41.9040   47.7950   75.8320 C.2    70  GLY70       0.2612
     20  O         41.3960   48.0750   76.9150 O.2    70  GLY70      -0.2717
     21  N         42.2560   48.7170   74.9370 N.am   71  SER71      -0.1952
     22  CA        42.0530   50.1480   75.1730 C.3    71  SER71       0.1924
     23  C         40.5890   50.5880   75.0620 C.2    71  SER71       0.2314
     24  O         40.2440   51.6950   75.4770 O.2    71  SER71      -0.2863
     25  CB        42.9200   50.9750   74.2230 C.3    71  SER71       0.2116
     26  OG        44.2900   50.8340   74.5440 O.3    71  SER71      -0.2180
     27  N         38.8690   50.2360   78.4870 N.3    74  ALA74      -0.1231
     28  CA        39.6770   51.0950   79.3520 C.3    74  ALA74       0.1694
     29  C         39.5460   52.5920   79.0670 C.2    74  ALA74       0.2592
     30  O         39.4920   53.3940   80.0030 O.2    74  ALA74      -0.2718
     31  CB        41.1440   50.6670   79.2970 C.3    74  ALA74       0.0304
     32  N         39.4930   52.9690   77.7890 N.am   75  HIS75      -0.1976
     33  CA        39.5440   54.3880   77.4060 C.3    75  HIS75       0.1656
     34  C         38.2870   54.9330   76.7200 C.2    75  HIS75       0.2291
     35  O         38.1050   56.1500   76.6380 O.2    75  HIS75      -0.2864
     36  CB        40.7850   54.6740   76.5470 C.3    75  HIS75       0.0771
     37  CG        42.0800   54.3730   77.2370 C.ar   75  HIS75       0.0820
     38  ND1       42.5390   55.1060   78.3110 N.ar   75  HIS75      -0.2267
     39  CD2       43.0120   53.4180   77.0080 C.ar   75  HIS75       0.1154
     40  CE1       43.6960   54.6140   78.7150 C.ar   75  HIS75       0.1986
     41  NE2       44.0060   53.5890   77.9400 N.ar   75  HIS75      -0.2212
     42  N         53.1310   37.8270   80.4760 N.3   181  ARG181     -0.1245
     43  CA        53.0120   39.2500   80.7520 C.3   181  ARG181      0.1563
     44  C         54.0770   39.6600   81.7740 C.2   181  ARG181      0.2260
     45  O         54.3650   38.9140   82.7110 O.2   181  ARG181     -0.2867
     46  CB        51.6060   39.5510   81.2690 C.3   181  ARG181      0.0307
     47  CG        51.0860   40.9340   80.9390 C.3   181  ARG181      0.0489
     48  CD        49.5770   41.0190   81.1580 C.3   181  ARG181      0.2205
     49  NE        48.8190   40.3880   80.0730 N.pl3 181  ARG181     -0.0865
     50  CZ        47.4990   40.2080   80.0810 C.cat 181  ARG181      0.5346
     51  NH1       46.9010   39.6290   79.0460 N.pl3 181  ARG181      0.1354
     52  NH2       46.7720   40.6020   81.1200 N.pl3 181  ARG181      0.1354
     53  N         51.0030   46.4030   84.3080 N.3   208  VAL208     -0.1231
     54  CA        51.5310   45.7570   83.1140 C.3   208  VAL208      0.1692
     55  C         52.5440   46.6620   82.4080 C.2   208  VAL208      0.2592
     56  O         52.2370   47.8060   82.0570 O.2   208  VAL208     -0.2718
     57  CB        50.4190   45.3210   82.1480 C.3   208  VAL208      0.0266
     58  CG1       51.0240   44.5710   80.9920 C.3   208  VAL208      0.0020
     59  CG2       49.3970   44.4360   82.8670 C.3   208  VAL208      0.0020
     60  N         53.7540   46.1360   82.2240 N.am  209  ILE209     -0.1966
     61  CA        54.8530   46.8810   81.6070 C.3   209  ILE209      0.1727
     62  C         55.1650   46.3680   80.1970 C.2   209  ILE209      0.2617
     63  O         55.4700   47.1490   79.2900 O.2   209  ILE209     -0.2715
     64  CB        56.1360   46.8380   82.5000 C.3   209  ILE209      0.0290
     65  CG1       55.8920   47.5260   83.8540 C.3   209  ILE209      0.0022
     66  CG2       57.3480   47.4590   81.7850 C.3   209  ILE209      0.0023
     67  CD1       55.3050   48.9420   83.7720 C.3   209  ILE209      0.0001
     68  N         55.0880   45.0530   80.0180 N.am  210  GLY210     -0.1940
     69  CA        55.4630   44.4490   78.7480 C.3   210  GLY210      0.2014
     70  C         55.1280   42.9790   78.6530 C.2   210  GLY210      0.2638
     71  O         54.3100   42.4690   79.4210 O.2   210  GLY210     -0.2714
     72  N         55.7710   42.3040   77.7020 N.am  211  ASN211     -0.1972
     73  CA        55.4690   40.9130   77.3770 C.3   211  ASN211      0.1688
     74  C         56.7200   40.1470   76.9550 C.2   211  ASN211      0.2292
     75  O         57.5850   40.6920   76.2720 O.2   211  ASN211     -0.2864
     76  CB        54.4090   40.8370   76.2700 C.3   211  ASN211      0.1181
     77  CG        53.1710   41.6690   76.5810 C.2   211  ASN211      0.2629
     78  OD1       52.2080   41.1770   77.1780 O.2   211  ASN211     -0.2716
     79  ND2       53.2020   42.9400   76.1990 N.am  211  ASN211     -0.0877
     80  N         39.2050   39.7510   72.8250 N.3   266  ARG266     -0.1245
     81  CA        39.7120   40.5250   71.6910 C.3   266  ARG266      0.1563
     82  C         41.2290   40.3770   71.6970 C.2   266  ARG266      0.2260
     83  O         41.7690   39.6200   72.5060 O.2   266  ARG266     -0.2867
     84  CB        39.2870   42.0070   71.7570 C.3   266  ARG266      0.0307
     85  CG        39.1400   42.6010   73.1560 C.3   266  ARG266      0.0489
     86  CD        40.4780   42.7790   73.8430 C.3   266  ARG266      0.2205
     87  NE        40.3420   43.0360   75.2740 N.pl3 266  ARG266     -0.0865
     88  CZ        41.3680   43.0850   76.1200 C.cat 266  ARG266      0.5346
     89  NH1       41.1590   43.3260   77.4060 N.pl3 266  ARG266      0.1354
     90  NH2       42.6080   42.8980   75.6770 N.pl3 266  ARG266      0.1354
     91  N         47.7600   42.4420   74.0600 N.3   269  ALA269     -0.1231
     92  CA        49.0100   43.0840   73.6720 C.3   269  ALA269      0.1694
     93  C         50.2150   42.1400   73.6700 C.2   269  ALA269      0.2592
     94  O         51.2400   42.4600   73.0790 O.2   269  ALA269     -0.2718
     95  CB        49.2720   44.2960   74.5410 C.3   269  ALA269      0.0304
     96  N         50.0860   40.9810   74.3170 N.am  270  GLY270     -0.1957
     97  CA        51.1020   39.9270   74.2240 C.3   270  GLY270      0.1869
     98  C         51.3900   39.5020   72.7910 C.2   270  GLY270      0.2309
     99  O         52.4920   39.0330   72.4810 O.2   270  GLY270     -0.2863
@<TRIPOS>BOND
     1     1     2    1
     2     4     3    2
     3    81    82    1
     4    81    84    1
     5    81    80    1
     6    82    83    2
     7    84    85    1
     8     3     2    1
     9     3     7   am
    10     2     5    1
    11     9    10    2
    12     9     8    1
    13    99    98    2
    14    98    97    1
    15     7     8    1
    16    13    15   ar
    17    13    12   ar
    18     8    11    1
    19    94    93    2
    20     5     6    1
    21    85    86    1
    22    11    12    1
    23    15    16   ar
    24    93    92    1
    25    93    96   am
    26    92    91    1
    27    92    95    1
    28    12    14   ar
    29    86    87    1
    30    17    18    1
    31    25    26    1
    32    25    22    1
    33    97    96    1
    34    16    14   ar
    35    21    22    1
    36    21    19   am
    37    23    22    1
    38    23    24    2
    39    87    88    2
    40    18    19    1
    41    90    88    1
    42    19    20    2
    43    88    89    1
    44    79    77   am
    45    76    77    1
    46    76    73    1
    47    75    74    2
    48    36    37    1
    49    36    33    1
    50    77    78    2
    51    35    34    2
    52    34    33    1
    53    74    73    1
    54    39    37   ar
    55    39    41   ar
    56    37    38   ar
    57    73    72    1
    58    33    32    1
    59    72    70   am
    60    32    29   am
    61    41    40   ar
    62    38    40   ar
    63    27    28    1
    64    70    69    1
    65    70    71    2
    66    69    68    1
    67    51    50    1
    68    29    28    1
    69    29    30    2
    70    63    62    2
    71    31    28    1
    72    68    62   am
    73    49    50    2
    74    49    48    1
    75    50    52    1
    76    62    61    1
    77    42    43    1
    78    43    46    1
    79    43    44    1
    80    47    48    1
    81    47    46    1
    82    58    57    1
    83    61    60    1
    84    61    64    1
    85    44    45    2
    86    66    64    1
    87    56    55    2
    88    57    59    1
    89    57    54    1
    90    60    55   am
    91    55    54    1
    92    64    65    1
    93    54    53    1
    94    67    65    1
