@<TRIPOS>MOLECULE
tmp/2r84A01.pdb
 115 109 0 0 0
SMALL
GASTEIGER

@<TRIPOS>ATOM
      1  N         40.7150   26.3310   24.8240 N.3    10  SER10      -0.1202
      2  CA        41.5020   26.5940   23.6160 C.3    10  SER10       0.2020
      3  C         42.0480   28.0210   23.6800 C.2    10  SER10       0.2618
      4  O         41.7440   28.7620   24.6190 O.2    10  SER10      -0.2717
      5  CB        40.6430   26.4260   22.3530 C.3    10  SER10       0.2103
      6  OG        41.4550   26.3560   21.1860 O.3    10  SER10      -0.2182
      7  N         42.8610   28.3820   22.6860 N.am   11  HIS11      -0.1975
      8  CA        43.3010   29.7650   22.4370 C.3    11  HIS11       0.1656
      9  C         44.3590   30.3100   23.4080 C.2    11  HIS11       0.2291
     10  O         45.5010   30.5580   23.0090 O.2    11  HIS11      -0.2864
     11  CB        42.1080   30.7300   22.3400 C.3    11  HIS11       0.0771
     12  CG        42.4780   32.0910   21.8430 C.ar   11  HIS11       0.0820
     13  ND1       42.8350   33.1220   22.6860 N.ar   11  HIS11      -0.2267
     14  CD2       42.5670   32.5850   20.5850 C.ar   11  HIS11       0.1154
     15  CE1       43.1230   34.1940   21.9700 C.ar   11  HIS11       0.1986
     16  NE2       42.9630   33.8960   20.6920 N.ar   11  HIS11      -0.2212
     17  N         39.5460   34.3770   21.4520 N.3    70  GLY70      -0.1210
     18  CA        39.3150   34.2040   20.0160 C.3    70  GLY70       0.1956
     19  C         38.5300   32.9580   19.6410 C.2    70  GLY70       0.2612
     20  O         37.8860   32.9230   18.5930 O.2    70  GLY70      -0.2717
     21  N         38.5370   31.9620   20.5240 N.am   71  SER71      -0.1952
     22  CA        37.7650   30.7360   20.3280 C.3    71  SER71       0.1924
     23  C         36.2530   30.9290   20.5040 C.2    71  SER71       0.2314
     24  O         35.4770   30.0270   20.1920 O.2    71  SER71      -0.2863
     25  CB        38.2610   29.6400   21.2740 C.3    71  SER71       0.2116
     26  OG        39.5740   29.2390   20.9340 O.3    71  SER71      -0.2180
     27  N         34.7970   32.0270   17.0530 N.3    74  ALA74      -0.1231
     28  CA        35.1800   30.9050   16.1960 C.3    74  ALA74       0.1694
     29  C         34.4190   29.6120   16.4910 C.2    74  ALA74       0.2592
     30  O         33.9810   28.9330   15.5600 O.2    74  ALA74      -0.2718
     31  CB        36.6870   30.6690   16.2680 C.3    74  ALA74       0.0304
     32  N         34.2510   29.2820   17.7720 N.am   75  HIS75      -0.1976
     33  CA        33.6950   27.9770   18.1610 C.3    75  HIS75       0.1656
     34  C         32.2960   27.9830   18.7930 C.2    75  HIS75       0.2291
     35  O         31.6220   26.9540   18.7910 O.2    75  HIS75      -0.2864
     36  CB        34.6800   27.2050   19.0530 C.3    75  HIS75       0.0771
     37  CG        35.9750   26.8760   18.3770 C.ar   75  HIS75       0.0820
     38  ND1       36.0860   25.8880   17.4220 N.ar   75  HIS75      -0.2267
     39  CD2       37.2130   27.4070   18.5140 C.ar   75  HIS75       0.1154
     40  CE1       37.3370   25.8240   17.0010 C.ar   75  HIS75       0.1986
     41  NE2       38.0410   26.7360   17.6470 N.ar   75  HIS75      -0.2212
     42  N         53.2490   37.4050   15.0870 N.3   197  ARG197     -0.1245
     43  CA        52.5370   36.1570   14.8110 C.3   197  ARG197      0.1563
     44  C         53.2980   35.3420   13.7570 C.2   197  ARG197      0.2260
     45  O         53.9540   35.9110   12.8830 O.2   197  ARG197     -0.2867
     46  CB        51.1110   36.4840   14.3490 C.3   197  ARG197      0.0307
     47  CG        50.0760   35.3810   14.5500 C.3   197  ARG197      0.0489
     48  CD        48.6510   35.9420   14.4680 C.3   197  ARG197      0.2205
     49  NE        48.3280   36.4440   13.1330 N.pl3 197  ARG197     -0.0865
     50  CZ        47.3060   37.2480   12.8440 C.cat 197  ARG197      0.5346
     51  NH1       46.4770   37.6670   13.7930 N.pl3 197  ARG197      0.1354
     52  NH2       47.1150   37.6380   11.5910 N.pl3 197  ARG197      0.1354
     53  N         47.5180   30.5510   11.2080 N.3   224  VAL224     -0.1231
     54  CA        48.2920   30.8990   12.4000 C.3   224  VAL224      0.1692
     55  C         48.8370   29.6460   13.0910 C.2   224  VAL224      0.2592
     56  O         48.0810   28.7320   13.4310 O.2   224  VAL224     -0.2718
     57  CB        47.4770   31.7510   13.3890 C.3   224  VAL224      0.0266
     58  CG1       48.3690   32.1950   14.5240 C.3   224  VAL224      0.0020
     59  CG2       46.8790   32.9760   12.6870 C.3   224  VAL224      0.0020
     60  N         50.1530   29.6190   13.2880 N.am  225  ILE225     -0.1966
     61  CA        50.8400   28.4790   13.8990 C.3   225  ILE225      0.1727
     62  C         51.3300   28.8130   15.3080 C.2   225  ILE225      0.2617
     63  O         51.2910   27.9730   16.2110 O.2   225  ILE225     -0.2715
     64  CB        52.0280   27.9960   13.0120 C.3   225  ILE225      0.0290
     65  CG1       51.5190   27.5110   11.6430 C.3   225  ILE225      0.0022
     66  CG2       52.8640   26.9160   13.7190 C.3   225  ILE225      0.0023
     67  CD1       50.3970   26.4610   11.7050 C.3   225  ILE225      0.0001
     68  N         51.7900   30.0440   15.4930 N.am  226  GLY226     -0.1940
     69  CA        52.3320   30.4380   16.7860 C.3   226  GLY226      0.2014
     70  C         52.6910   31.9000   16.8570 C.2   226  GLY226      0.2638
     71  O         52.1800   32.7140   16.0880 O.2   226  GLY226     -0.2714
     72  N         53.5740   32.2260   17.7990 N.am  227  ASN227     -0.1972
     73  CA        53.8900   33.6110   18.1270 C.3   227  ASN227      0.1688
     74  C         55.3450   33.7670   18.5620 C.2   227  ASN227      0.2292
     75  O         55.8800   32.9090   19.2630 O.2   227  ASN227     -0.2864
     76  CB        52.9530   34.1170   19.2320 C.3   227  ASN227      0.1181
     77  CG        51.4860   33.8860   18.9060 C.2   227  ASN227      0.2629
     78  OD1       50.8280   34.7430   18.3050 O.2   227  ASN227     -0.2716
     79  ND2       50.9760   32.7130   19.2650 N.am  227  ASN227     -0.0877
     80  N         45.9190   44.9150   15.2200 N.3   265  GLU265     -0.1245
     81  CA        46.7000   44.0390   14.3580 C.3   265  GLU265      0.1567
     82  C         47.0840   44.7840   13.0920 C.2   265  GLU265      0.2260
     83  O         46.2190   45.2410   12.3440 O.2   265  GLU265     -0.2867
     84  CB        45.9110   42.7610   14.0350 C.3   265  GLU265      0.0388
     85  CG        45.4050   42.0390   15.2890 C.3   265  GLU265      0.1160
     86  CD        44.7150   40.7120   15.0100 C.2   265  GLU265      0.3649
     87  OE1       44.6340   40.2870   13.8390 O.co2 265  GLU265     -0.2457
     88  OE2       44.2550   40.0820   15.9870 O.co2 265  GLU265     -0.2457
     89  N         39.5960   41.5420   22.5980 N.3   282  ARG282     -0.1245
     90  CA        39.7090   40.6190   23.7270 C.3   282  ARG282      0.1563
     91  C         41.1550   40.1220   23.7570 C.2   282  ARG282      0.2260
     92  O         41.9790   40.5890   22.9720 O.2   282  ARG282     -0.2867
     93  CB        38.7090   39.4510   23.6320 C.3   282  ARG282      0.0307
     94  CG        38.3200   39.0110   22.2240 C.3   282  ARG282      0.0489
     95  CD        39.4180   38.1970   21.5820 C.3   282  ARG282      0.2205
     96  NE        39.2250   38.0240   20.1430 N.pl3 282  ARG282     -0.0865
     97  CZ        40.1710   37.5700   19.3240 C.cat 282  ARG282      0.5346
     98  NH1       39.9240   37.4360   18.0270 N.pl3 282  ARG282      0.1354
     99  NH2       41.3640   37.2450   19.8050 N.pl3 282  ARG282      0.1354
    100  N         44.4080   38.2560   22.9170 N.3   284  VAL284     -0.1231
    101  CA        44.9690   37.5600   21.7570 C.3   284  VAL284      0.1692
    102  C         46.0260   36.5510   22.2070 C.2   284  VAL284      0.2592
    103  O         46.6650   36.7230   23.2490 O.2   284  VAL284     -0.2718
    104  CB        45.5330   38.5200   20.6610 C.3   284  VAL284      0.0266
    105  CG1       44.4290   39.4050   20.0980 C.3   284  VAL284      0.0020
    106  CG2       46.7100   39.3550   21.1700 C.3   284  VAL284      0.0020
    107  N         46.2000   35.4990   21.4150 N.am  285  ALA285     -0.1966
    108  CA        47.0630   34.3870   21.7970 C.3   285  ALA285      0.1728
    109  C         48.5510   34.7450   21.7860 C.2   285  ALA285      0.2616
    110  O         49.3570   34.0370   22.3750 O.2   285  ALA285     -0.2715
    111  CB        46.7840   33.1820   20.9240 C.3   285  ALA285      0.0334
    112  N         48.9110   35.8510   21.1320 N.am  286  GLY286     -0.1955
    113  CA        50.2790   36.3890   21.2300 C.3   286  GLY286      0.1869
    114  C         50.7180   36.6530   22.6640 C.2   286  GLY286      0.2309
    115  O         51.9190   36.6150   22.9810 O.2   286  GLY286     -0.2863
@<TRIPOS>BOND
     1    53    54    1
     2    52    50    1
     3    65    67    1
     4    65    64    1
     5    83    82    2
     6    54    55    1
     7    54    57    1
     8    59    57    1
     9    50    49    2
    10    50    51    1
    11    45    44    2
    12    64    66    1
    13    64    61    1
    14    55    60   am
    15    55    56    2
    16    82    81    1
    17    49    48    1
    18    60    61    1
    19    57    58    1
    20    44    43    1
    21    87    86   ar
    22    61    62    1
    23    84    81    1
    24    84    85    1
    25    46    47    1
    26    46    43    1
    27    81    80    1
    28    48    47    1
    29    43    42    1
    30    86    85    1
    31    86    88   ar
    32    62    68   am
    33    62    63    2
    34    68    69    1
    35    30    29    2
    36    71    70    2
    37    28    31    1
    38    28    29    1
    39    28    27    1
    40    29    32   am
    41    69    70    1
    42    70    72   am
    43    40    38   ar
    44    40    41   ar
    45    38    37   ar
    46    41    39   ar
    47    32    33    1
    48    72    73    1
    49    98    97    1
    50    73    74    1
    51    73    76    1
    52    33    34    1
    53    33    36    1
    54    78    77    2
    55    37    39   ar
    56    37    36    1
    57    74    75    2
    58    20    19    2
    59    35    34    2
    60    77    76    1
    61    77    79   am
    62    97    99    1
    63    97    96    2
    64    19    18    1
    65    19    21   am
    66    18    17    1
    67   105   104    1
    68    96    95    1
    69    24    23    2
    70    22    23    1
    71    22    21    1
    72    22    25    1
    73    14    16   ar
    74    14    12   ar
    75   104   106    1
    76   104   101    1
    77    16    15   ar
    78   111   108    1
    79    26    25    1
    80   112   113    1
    81   112   109   am
    82     6     5    1
    83   113   114    1
    84   107   108    1
    85   107   102   am
    86    95    94    1
    87   101   102    1
    88   101   100    1
    89   109   108    1
    90   109   110    2
    91    12    11    1
    92    12    13   ar
    93    15    13   ar
    94   102   103    2
    95    94    93    1
    96    11     8    1
    97     5     2    1
    98     8     7    1
    99     8     9    1
   100    89    90    1
   101   114   115    2
   102     7     3   am
   103    92    91    2
   104    10     9    2
   105     2     3    1
   106     2     1    1
   107    93    90    1
   108     3     4    2
   109    90    91    1
