@<TRIPOS>MOLECULE
tmp/2r84B00.pdb
 151 146 0 0 0
SMALL
GASTEIGER

@<TRIPOS>ATOM
      1  N         33.0070   40.6590   86.0520 N.3   101  ARG101     -0.1245
      2  CA        33.6040   39.4650   86.6680 C.3   101  ARG101      0.1563
      3  C         32.6070   38.3220   86.8810 C.2   101  ARG101      0.2260
      4  O         32.9780   37.1500   86.8010 O.2   101  ARG101     -0.2867
      5  CB        34.2990   39.8090   87.9950 C.3   101  ARG101      0.0307
      6  CG        35.3820   40.8950   87.9130 C.3   101  ARG101      0.0489
      7  CD        36.4590   40.6010   86.8670 C.3   101  ARG101      0.2205
      8  NE        37.2810   39.4380   87.2060 N.pl3 101  ARG101     -0.0865
      9  CZ        38.4110   39.4870   87.9090 C.cat 101  ARG101      0.5346
     10  NH1       38.8700   40.6470   88.3680 N.pl3 101  ARG101      0.1354
     11  NH2       39.0850   38.3700   88.1570 N.pl3 101  ARG101      0.1354
     12  N         39.5490   29.1240   89.6840 N.3   116  PRO116     -0.2116
     13  CA        39.6460   28.9960   91.1420 C.3   116  PRO116      0.1372
     14  C         38.2720   28.8860   91.8010 C.2   116  PRO116      0.2244
     15  O         37.3260   29.5540   91.3730 O.2   116  PRO116     -0.2868
     16  CB        40.3240   30.3040   91.5690 C.3   116  PRO116      0.0268
     17  CG        41.0020   30.8090   90.3430 C.3   116  PRO116      0.0207
     18  CD        40.1240   30.3950   89.2070 C.3   116  PRO116      0.0892
     19  N         42.8150   33.1690   98.8310 N.3   130  ILE130     -0.1245
     20  CA        43.1730   34.5730   98.6670 C.3   130  ILE130      0.1561
     21  C         41.9230   35.4320   98.8800 C.2   130  ILE130      0.2260
     22  O         40.8500   35.1310   98.3490 O.2   130  ILE130     -0.2867
     23  CB        43.8570   34.8510   97.2880 C.3   130  ILE130      0.0252
     24  CG1       44.3310   36.3100   97.1940 C.3   130  ILE130      0.0019
     25  CG2       42.9430   34.4600   96.1120 C.3   130  ILE130      0.0019
     26  CD1       45.3780   36.5620   96.1160 C.3   130  ILE130      0.0001
     27  N         40.1120   39.0990   98.5300 N.3   132  LYS132     -0.1245
     28  CA        40.1780   40.2930   97.6870 C.3   132  LYS132      0.1561
     29  C         39.2020   41.3670   98.1600 C.2   132  LYS132      0.2260
     30  O         37.9890   41.1520   98.1840 O.2   132  LYS132     -0.2867
     31  CB        39.9020   39.9350   96.2230 C.3   132  LYS132      0.0271
     32  CG        40.7760   38.8180   95.6680 C.3   132  LYS132      0.0035
     33  CD        40.5120   38.5990   94.1900 C.3   132  LYS132      0.0206
     34  CE        41.3370   37.4440   93.6500 C.3   132  LYS132      0.1093
     35  NZ        41.1510   37.2690   92.1810 N.3   132  LYS132     -0.1314
     36  N         45.1270   42.5640   99.4710 N.3   134  TYR134     -0.1241
     37  CA        45.1070   41.1300   99.1900 C.3   134  TYR134      0.1605
     38  C         45.9230   40.3590  100.2230 C.2   134  TYR134      0.2264
     39  O         47.1030   40.6520  100.4390 O.2   134  TYR134     -0.2867
     40  CB        45.6480   40.8600   97.7800 C.3   134  TYR134      0.0534
     41  CG        44.6840   41.1600   96.6460 C.ar  134  TYR134     -0.0201
     42  CD1       43.8930   42.3130   96.6490 C.ar  134  TYR134     -0.0009
     43  CD2       44.5850   40.3010   95.5500 C.ar  134  TYR134     -0.0009
     44  CE1       43.0150   42.5890   95.6050 C.ar  134  TYR134      0.0417
     45  CE2       43.7130   40.5720   94.4970 C.ar  134  TYR134      0.0417
     46  CZ        42.9320   41.7160   94.5330 C.ar  134  TYR134      0.1957
     47  OH        42.0670   41.9890   93.4990 O.3   134  TYR134     -0.2866
     48  N         38.5740   33.4870   97.3010 N.3   152  GLN152     -0.1231
     49  CA        38.9130   32.5620   96.2210 C.3   152  GLN152      0.1698
     50  C         39.9940   31.5710   96.6180 C.2   152  GLN152      0.2592
     51  O         40.9170   31.9130   97.3540 O.2   152  GLN152     -0.2718
     52  CB        39.3910   33.3300   94.9900 C.3   152  GLN152      0.0381
     53  CG        38.2870   33.8770   94.1090 C.3   152  GLN152      0.0905
     54  CD        38.8020   34.3730   92.7680 C.2   152  GLN152      0.2608
     55  OE1       39.9870   34.2400   92.4490 O.2   152  GLN152     -0.2717
     56  NE2       37.9070   34.9490   91.9720 N.am  152  GLN152     -0.0878
     57  N         39.8730   30.3470   96.1110 N.am  153  GLU153     -0.1966
     58  CA        40.9400   29.3550   96.1840 C.3   153  GLU153      0.1733
     59  C         42.2390   29.9540   95.6440 C.2   153  GLU153      0.2616
     60  O         42.2760   30.4620   94.5210 O.2   153  GLU153     -0.2715
     61  CB        40.5560   28.1160   95.3670 C.3   153  GLU153      0.0429
     62  CG        41.6890   27.1190   95.1320 C.3   153  GLU153      0.1163
     63  CD        41.4150   26.1640   93.9770 C.2   153  GLU153      0.3649
     64  OE1       40.3820   26.3210   93.2870 O.co2 153  GLU153     -0.2457
     65  OE2       42.2430   25.2540   93.7570 O.co2 153  GLU153     -0.2457
     66  N         43.2920   29.9070   96.4550 N.am  154  TYR154     -0.1960
     67  CA        44.6010   30.3790   96.0250 C.3   154  TYR154      0.1771
     68  C         45.2640   29.3380   95.1260 C.2   154  TYR154      0.2619
     69  O         45.5180   28.2070   95.5480 O.2   154  TYR154     -0.2715
     70  CB        45.4840   30.7080   97.2310 C.3   154  TYR154      0.0574
     71  CG        46.9180   31.0180   96.8740 C.ar  154  TYR154     -0.0198
     72  CD1       47.2590   32.2100   96.2300 C.ar  154  TYR154     -0.0009
     73  CD2       47.9380   30.1180   97.1790 C.ar  154  TYR154     -0.0009
     74  CE1       48.5820   32.4940   95.8980 C.ar  154  TYR154      0.0417
     75  CE2       49.2590   30.3920   96.8540 C.ar  154  TYR154      0.0417
     76  CZ        49.5740   31.5800   96.2160 C.ar  154  TYR154      0.1957
     77  OH        50.8860   31.8490   95.8990 O.3   154  TYR154     -0.2866
     78  N         45.5310   29.7270   93.8830 N.am  155  VAL155     -0.1977
     79  CA        46.1080   28.8160   92.8970 C.3   155  VAL155      0.1596
     80  C         47.5300   29.2450   92.5390 C.2   155  VAL155      0.2287
     81  O         47.7360   30.2980   91.9370 O.2   155  VAL155     -0.2864
     82  CB        45.2340   28.7270   91.6170 C.3   155  VAL155      0.0276
     83  CG1       45.8460   27.7500   90.6180 C.3   155  VAL155      0.0022
     84  CG2       43.8090   28.2990   91.9680 C.3   155  VAL155      0.0022
     85  N         52.4670   32.2020   85.3560 N.3   159  PRO159     -0.2116
     86  CA        51.5710   32.8890   84.4210 C.3   159  PRO159      0.1372
     87  C         51.7960   32.4640   82.9690 C.2   159  PRO159      0.2244
     88  O         52.9410   32.3960   82.5060 O.2   159  PRO159     -0.2868
     89  CB        51.9210   34.3710   84.6150 C.3   159  PRO159      0.0268
     90  CG        52.5280   34.4450   85.9790 C.3   159  PRO159      0.0207
     91  CD        53.2910   33.1560   86.1210 C.3   159  PRO159      0.0892
     92  N         49.7630   32.9440   78.9720 N.3   161  TYR161     -0.1241
     93  CA        48.7230   33.6440   78.2150 C.3   161  TYR161      0.1605
     94  C         48.6610   33.1690   76.7610 C.2   161  TYR161      0.2264
     95  O         49.2930   33.7670   75.8920 O.2   161  TYR161     -0.2867
     96  CB        48.9500   35.1670   78.2690 C.3   161  TYR161      0.0534
     97  CG        49.0440   35.7380   79.6730 C.ar  161  TYR161     -0.0201
     98  CD1       50.2280   35.6430   80.4060 C.ar  161  TYR161     -0.0009
     99  CD2       47.9530   36.3770   80.2650 C.ar  161  TYR161     -0.0009
    100  CE1       50.3240   36.1590   81.6950 C.ar  161  TYR161      0.0417
    101  CE2       48.0400   36.9000   81.5590 C.ar  161  TYR161      0.0417
    102  CZ        49.2290   36.7850   82.2630 C.ar  161  TYR161      0.1957
    103  OH        49.3300   37.2920   83.5390 O.3   161  TYR161     -0.2866
    104  N         55.1870   42.2920   84.5890 N.3   183  GLU183     -0.1245
    105  CA        54.4420   43.1800   85.4910 C.3   183  GLU183      0.1567
    106  C         55.2910   43.7480   86.6320 C.2   183  GLU183      0.2260
    107  O         56.1920   43.0790   87.1350 O.2   183  GLU183     -0.2867
    108  CB        53.2120   42.4520   86.0570 C.3   183  GLU183      0.0388
    109  CG        52.2170   41.9600   84.9940 C.3   183  GLU183      0.1160
    110  CD        51.2920   40.8570   85.4930 C.2   183  GLU183      0.3649
    111  OE1       51.6840   40.0920   86.4030 O.co2 183  GLU183     -0.2457
    112  OE2       50.1680   40.7450   84.9580 O.co2 183  GLU183     -0.2457
    113  N         50.6810   45.0280   90.2640 N.3   206  TYR206     -0.1241
    114  CA        50.6190   44.1830   89.0800 C.3   206  TYR206      0.1605
    115  C         50.4600   45.0100   87.8020 C.2   206  TYR206      0.2264
    116  O         49.8140   44.5730   86.8440 O.2   206  TYR206     -0.2867
    117  CB        49.4790   43.1660   89.2300 C.3   206  TYR206      0.0534
    118  CG        49.6620   42.2320   90.4070 C.ar  206  TYR206     -0.0201
    119  CD1       50.2860   40.9960   90.2450 C.ar  206  TYR206     -0.0009
    120  CD2       49.2210   42.5880   91.6860 C.ar  206  TYR206     -0.0009
    121  CE1       50.4660   40.1340   91.3220 C.ar  206  TYR206      0.0417
    122  CE2       49.4000   41.7310   92.7730 C.ar  206  TYR206      0.0417
    123  CZ        50.0250   40.5070   92.5780 C.ar  206  TYR206      0.1957
    124  OH        50.2060   39.6520   93.6380 O.3   206  TYR206     -0.2866
    125  N         47.3140   30.5620   84.9380 N.3   251  VAL251     -0.1245
    126  CA        48.5580   29.9540   85.3920 C.3   251  VAL251      0.1561
    127  C         48.5840   28.4480   85.1230 C.2   251  VAL251      0.2260
    128  O         47.5340   27.8010   85.0450 O.2   251  VAL251     -0.2867
    129  CB        48.8270   30.2240   86.9020 C.3   251  VAL251      0.0252
    130  CG1       49.0150   31.7150   87.1670 C.3   251  VAL251      0.0019
    131  CG2       47.7090   29.6450   87.7880 C.3   251  VAL251      0.0019
    132  N         42.0910   32.7130   85.1860 N.3   261  PHE261     -0.1227
    133  CA        41.5970   33.8040   86.0230 C.3   261  PHE261      0.1736
    134  C         40.6630   34.7290   85.2460 C.2   261  PHE261      0.2595
    135  O         39.6320   35.1600   85.7660 O.2   261  PHE261     -0.2718
    136  CB        42.7590   34.6310   86.5930 C.3   261  PHE261      0.0547
    137  CG        43.7030   33.8550   87.4770 C.ar  261  PHE261     -0.0202
    138  CD1       45.0640   34.1440   87.4680 C.ar  261  PHE261     -0.0042
    139  CD2       43.2400   32.8500   88.3210 C.ar  261  PHE261     -0.0042
    140  CE1       45.9520   33.4460   88.2860 C.ar  261  PHE261     -0.0003
    141  CE2       44.1230   32.1390   89.1400 C.ar  261  PHE261     -0.0003
    142  CZ        45.4810   32.4420   89.1210 C.ar  261  PHE261     -0.0000
    143  N         41.0400   35.0370   84.0050 N.am  262  GLU262     -0.1979
    144  CA        40.3140   36.0030   83.1830 C.3   262  GLU262      0.1602
    145  C         40.2720   35.6000   81.7160 C.2   262  GLU262      0.2287
    146  O         41.1170   34.8390   81.2390 O.2   262  GLU262     -0.2864
    147  CB        40.9660   37.3870   83.2850 C.3   262  GLU262      0.0415
    148  CG        40.8410   38.0620   84.6400 C.3   262  GLU262      0.1163
    149  CD        41.6150   39.3600   84.7060 C.2   262  GLU262      0.3649
    150  OE1       41.1820   40.3460   84.0710 O.co2 262  GLU262     -0.2457
    151  OE2       42.6580   39.3920   85.3950 O.co2 262  GLU262     -0.2457
@<TRIPOS>BOND
     1    95    94    2
     2    94    93    1
     3    93    96    1
     4    93    92    1
     5    96    97    1
     6    97    99   ar
     7    97    98   ar
     8    99   101   ar
     9    98   100   ar
    10   146   145    2
    11   101   102   ar
    12   100   102   ar
    13   145   144    1
    14   102   103    1
    15    88    87    2
    16    87    86    1
    17   144   147    1
    18   144   143    1
    19   147   148    1
    20   143   134   am
    21   150   149   ar
    22    86    89    1
    23    86    85    1
    24   104   105    1
    25    89    90    1
    26   148   149    1
    27   149   151   ar
    28   125   126    1
    29   112   110   ar
    30   109   110    1
    31   109   108    1
    32   128   127    2
    33   127   126    1
    34   132   133    1
    35   134   135    2
    36   134   133    1
    37    85    91    1
    38   126   129    1
    39   105   108    1
    40   105   106    1
    41   110   111   ar
    42    90    91    1
    43   133   136    1
    44     1     2    1
    45   136   137    1
    46   106   107    2
    47     2     3    1
    48     2     5    1
    49     4     3    2
    50   116   115    2
    51     7     8    1
    52     7     6    1
    53   129   130    1
    54   129   131    1
    55     8     9    2
    56   138   137   ar
    57   138   140   ar
    58   137   139   ar
    59   115   114    1
    60     9    11    1
    61     9    10    1
    62     6     5    1
    63   140   142   ar
    64   139   141   ar
    65   114   117    1
    66   114   113    1
    67   142   141   ar
    68    18    12    1
    69    18    17    1
    70   117   118    1
    71    12    13    1
    72   119   118   ar
    73   119   121   ar
    74    17    16    1
    75   118   120   ar
    76    83    82    1
    77    13    16    1
    78    13    14    1
    79   121   123   ar
    80    15    14    2
    81    82    84    1
    82    82    79    1
    83   120   122   ar
    84    81    80    2
    85    56    54   am
    86    35    34    1
    87    55    54    2
    88    80    79    1
    89   123   122   ar
    90   123   124    1
    91    54    53    1
    92    79    78    1
    93    64    63   ar
    94    47    46    1
    95    34    33    1
    96    65    63   ar
    97    78    68   am
    98    63    62    1
    99    53    52    1
   100    33    32    1
   101    45    46   ar
   102    45    43   ar
   103    60    59    2
   104    46    44   ar
   105    52    49    1
   106    68    69    2
   107    68    67    1
   108    62    61    1
   109    61    58    1
   110    43    41   ar
   111    44    42   ar
   112    59    58    1
   113    59    66   am
   114    32    31    1
   115    74    76   ar
   116    74    72   ar
   117    77    76    1
   118    67    66    1
   119    67    70    1
   120    57    58    1
   121    57    50   am
   122    25    23    1
   123    26    24    1
   124    76    75   ar
   125    49    50    1
   126    49    48    1
   127    31    28    1
   128    72    71   ar
   129    50    51    2
   130    41    42   ar
   131    41    40    1
   132    75    73   ar
   133    71    73   ar
   134    71    70    1
   135    24    23    1
   136    23    20    1
   137    28    29    1
   138    28    27    1
   139    40    37    1
   140    29    30    2
   141    22    21    2
   142    20    19    1
   143    20    21    1
   144    37    36    1
   145    37    38    1
   146    38    39    2
