@<TRIPOS>MOLECULE
tmp/2r85B00.pdb
 148 143 0 0 0
SMALL
GASTEIGER

@<TRIPOS>ATOM
      1  N         39.1780   29.4440   89.8120 N.3   116  PRO116     -0.2116
      2  CA        39.2570   29.3070   91.2750 C.3   116  PRO116      0.1372
      3  C         37.8810   29.2130   91.9410 C.2   116  PRO116      0.2244
      4  O         36.9460   29.9080   91.5420 O.2   116  PRO116     -0.2868
      5  CB        39.9690   30.5930   91.7170 C.3   116  PRO116      0.0268
      6  CG        40.6950   31.0740   90.4920 C.3   116  PRO116      0.0207
      7  CD        39.7930   30.7020   89.3470 C.3   116  PRO116      0.0892
      8  N         42.6810   33.2250   98.9350 N.3   130  ILE130     -0.1245
      9  CA        43.0900   34.6160   98.7960 C.3   130  ILE130      0.1561
     10  C         41.8770   35.5070   99.0640 C.2   130  ILE130      0.2260
     11  O         40.7760   35.2640   98.5500 O.2   130  ILE130     -0.2867
     12  CB        43.7500   34.9110   97.4070 C.3   130  ILE130      0.0252
     13  CG1       44.2650   36.3570   97.3420 C.3   130  ILE130      0.0019
     14  CG2       42.7940   34.5860   96.2480 C.3   130  ILE130      0.0019
     15  CD1       45.1640   36.6530   96.1450 C.3   130  ILE130      0.0001
     16  N         40.2930   39.2510   98.8010 N.3   132  LYS132     -0.1245
     17  CA        40.4280   40.4580   97.9900 C.3   132  LYS132      0.1561
     18  C         39.4810   41.5580   98.4780 C.2   132  LYS132      0.2260
     19  O         38.2930   41.5400   98.1440 O.2   132  LYS132     -0.2867
     20  CB        40.1480   40.1500   96.5150 C.3   132  LYS132      0.0271
     21  CG        41.0010   39.0410   95.9130 C.3   132  LYS132      0.0035
     22  CD        40.7030   38.8870   94.4320 C.3   132  LYS132      0.0206
     23  CE        41.4430   37.7050   93.8370 C.3   132  LYS132      0.1093
     24  NZ        41.0960   37.4960   92.4010 N.3   132  LYS132     -0.1314
     25  N         45.1410   44.9460   93.2890 N.3   134  GLY134     -0.1225
     26  CA        45.7580   43.9550   94.1650 C.3   134  GLY134      0.1811
     27  C         46.0860   44.4610   95.5610 C.2   134  GLY134      0.2280
     28  O         46.8370   43.8140   96.3000 O.2   134  GLY134     -0.2866
     29  N         45.4400   42.5530   99.4910 N.3   137  TYR137     -0.1241
     30  CA        45.2730   41.1140   99.2590 C.3   137  TYR137      0.1605
     31  C         46.0890   40.2920  100.2510 C.2   137  TYR137      0.2264
     32  O         47.2800   40.5480  100.4480 O.2   137  TYR137     -0.2867
     33  CB        45.6910   40.7480   97.8270 C.3   137  TYR137      0.0534
     34  CG        44.7110   41.1340   96.7330 C.ar  137  TYR137     -0.0201
     35  CD1       43.7700   42.1500   96.9210 C.ar  137  TYR137     -0.0009
     36  CD2       44.7500   40.4990   95.4910 C.ar  137  TYR137     -0.0009
     37  CE1       42.8810   42.5060   95.9120 C.ar  137  TYR137      0.0417
     38  CE2       43.8690   40.8490   94.4730 C.ar  137  TYR137      0.0417
     39  CZ        42.9360   41.8520   94.6910 C.ar  137  TYR137      0.1957
     40  OH        42.0640   42.2020   93.6880 O.3   137  TYR137     -0.2866
     41  N         38.5090   33.7020   97.4480 N.3   168  GLN168     -0.1231
     42  CA        38.7690   32.7540   96.3680 C.3   168  GLN168      0.1698
     43  C         39.7820   31.6960   96.7710 C.2   168  GLN168      0.2592
     44  O         40.7210   31.9750   97.5140 O.2   168  GLN168     -0.2718
     45  CB        39.3230   33.4760   95.1380 C.3   168  GLN168      0.0381
     46  CG        38.2980   34.1550   94.2580 C.3   168  GLN168      0.0905
     47  CD        38.8640   34.5490   92.9060 C.2   168  GLN168      0.2608
     48  OE1       40.0810   34.5290   92.6900 O.2   168  GLN168     -0.2717
     49  NE2       37.9810   34.9050   91.9820 N.am  168  GLN168     -0.0878
     50  N         39.5950   30.4850   96.2550 N.am  169  GLU169     -0.1966
     51  CA        40.6160   29.4550   96.3310 C.3   169  GLU169      0.1733
     52  C         41.9240   30.0310   95.7800 C.2   169  GLU169      0.2616
     53  O         41.9540   30.5860   94.6770 O.2   169  GLU169     -0.2715
     54  CB        40.1860   28.2380   95.5060 C.3   169  GLU169      0.0429
     55  CG        41.2970   27.2360   95.2120 C.3   169  GLU169      0.1163
     56  CD        40.9430   26.2690   94.0870 C.2   169  GLU169      0.3649
     57  OE1       39.9330   26.4960   93.3860 O.co2 169  GLU169     -0.2457
     58  OE2       41.6850   25.2810   93.9050 O.co2 169  GLU169     -0.2457
     59  N         42.9940   29.9210   96.5580 N.am  170  TYR170     -0.1960
     60  CA        44.2990   30.3840   96.1030 C.3   170  TYR170      0.1771
     61  C         44.9360   29.3090   95.2250 C.2   170  TYR170      0.2619
     62  O         45.1060   28.1680   95.6530 O.2   170  TYR170     -0.2715
     63  CB        45.1900   30.7270   97.2960 C.3   170  TYR170      0.0574
     64  CG        46.6330   30.9810   96.9460 C.ar  170  TYR170     -0.0198
     65  CD1       47.0290   32.1800   96.3540 C.ar  170  TYR170     -0.0009
     66  CD2       47.6080   30.0210   97.2170 C.ar  170  TYR170     -0.0009
     67  CE1       48.3700   32.4170   96.0340 C.ar  170  TYR170      0.0417
     68  CE2       48.9420   30.2460   96.9060 C.ar  170  TYR170      0.0417
     69  CZ        49.3150   31.4430   96.3190 C.ar  170  TYR170      0.1957
     70  OH        50.6390   31.6590   96.0160 O.3   170  TYR170     -0.2866
     71  N         45.2670   29.6760   93.9910 N.am  171  VAL171     -0.1977
     72  CA        45.8400   28.7280   93.0410 C.3   171  VAL171      0.1596
     73  C         47.2550   29.1590   92.6670 C.2   171  VAL171      0.2287
     74  O         47.4410   30.1960   92.0280 O.2   171  VAL171     -0.2864
     75  CB        44.9720   28.6000   91.7580 C.3   171  VAL171      0.0276
     76  CG1       45.6010   27.6080   90.7790 C.3   171  VAL171      0.0022
     77  CG2       43.5460   28.1690   92.1050 C.3   171  VAL171      0.0022
     78  N         52.1920   32.1110   85.4850 N.3   175  PRO175     -0.2116
     79  CA        51.3100   32.8440   84.5760 C.3   175  PRO175      0.1372
     80  C         51.5220   32.4390   83.1200 C.2   175  PRO175      0.2244
     81  O         52.6640   32.3540   82.6530 O.2   175  PRO175     -0.2868
     82  CB        51.7220   34.3130   84.7750 C.3   175  PRO175      0.0268
     83  CG        52.4430   34.3560   86.0630 C.3   175  PRO175      0.0207
     84  CD        53.0810   33.0100   86.2440 C.3   175  PRO175      0.0892
     85  N         49.4770   32.9900   79.1000 N.3   177  TYR177     -0.1241
     86  CA        48.4580   33.7390   78.3570 C.3   177  TYR177      0.1605
     87  C         48.3870   33.2660   76.8950 C.2   177  TYR177      0.2264
     88  O         49.0520   33.8250   76.0200 O.2   177  TYR177     -0.2867
     89  CB        48.7560   35.2460   78.4190 C.3   177  TYR177      0.0534
     90  CG        48.9030   35.7790   79.8310 C.ar  177  TYR177     -0.0201
     91  CD1       50.1140   35.6610   80.5150 C.ar  177  TYR177     -0.0009
     92  CD2       47.8310   36.3860   80.4850 C.ar  177  TYR177     -0.0009
     93  CE1       50.2610   36.1310   81.8180 C.ar  177  TYR177      0.0417
     94  CE2       47.9710   36.8630   81.7990 C.ar  177  TYR177      0.0417
     95  CZ        49.1890   36.7290   82.4510 C.ar  177  TYR177      0.1957
     96  OH        49.3640   37.1930   83.7450 O.3   177  TYR177     -0.2866
     97  N         52.8800   37.8130   80.5570 N.3   197  ARG197     -0.1245
     98  CA        52.8700   39.2330   80.8660 C.3   197  ARG197      0.1563
     99  C         54.0190   39.5580   81.8100 C.2   197  ARG197      0.2260
    100  O         54.4060   38.7360   82.6450 O.2   197  ARG197     -0.2867
    101  CB        51.5490   39.6490   81.5120 C.3   197  ARG197      0.0307
    102  CG        50.3830   39.7730   80.5520 C.3   197  ARG197      0.0489
    103  CD        49.3400   40.7260   81.1220 C.3   197  ARG197      0.2205
    104  NE        48.8780   40.2850   82.4370 N.pl3 197  ARG197     -0.0865
    105  CZ        47.6180   39.9810   82.7350 C.cat 197  ARG197      0.5346
    106  NH1       46.6670   40.0750   81.8130 N.pl3 197  ARG197      0.1354
    107  NH2       47.3110   39.5830   83.9630 N.pl3 197  ARG197      0.1354
    108  N         55.0630   42.2340   84.6720 N.3   199  GLU199     -0.1245
    109  CA        54.2910   43.1060   85.5660 C.3   199  GLU199      0.1567
    110  C         55.1290   43.6740   86.7010 C.2   199  GLU199      0.2260
    111  O         56.0110   42.9920   87.2300 O.2   199  GLU199     -0.2867
    112  CB        53.1000   42.3390   86.1490 C.3   199  GLU199      0.0388
    113  CG        52.0590   41.9160   85.1140 C.3   199  GLU199      0.1160
    114  CD        51.2090   40.7340   85.5580 C.2   199  GLU199      0.3649
    115  OE1       51.6590   39.9340   86.4140 O.co2 199  GLU199     -0.2457
    116  OE2       50.0940   40.5870   85.0190 O.co2 199  GLU199     -0.2457
    117  N         50.5130   44.9430   90.2380 N.3   222  TYR222     -0.1241
    118  CA        50.4490   44.1030   89.0430 C.3   222  TYR222      0.1605
    119  C         50.3030   44.9390   87.7700 C.2   222  TYR222      0.2264
    120  O         49.6630   44.5170   86.8010 O.2   222  TYR222     -0.2867
    121  CB        49.2930   43.1020   89.1820 C.3   222  TYR222      0.0534
    122  CG        49.4620   42.1630   90.3560 C.ar  222  TYR222     -0.0201
    123  CD1       50.1380   40.9500   90.2050 C.ar  222  TYR222     -0.0009
    124  CD2       48.9650   42.4910   91.6210 C.ar  222  TYR222     -0.0009
    125  CE1       50.3080   40.0830   91.2750 C.ar  222  TYR222      0.0417
    126  CE2       49.1370   41.6270   92.7050 C.ar  222  TYR222      0.0417
    127  CZ        49.8120   40.4270   92.5190 C.ar  222  TYR222      0.1957
    128  OH        49.9880   39.5600   93.5760 O.3   222  TYR222     -0.2866
    129  N         41.8520   32.7910   85.3360 N.3   277  PHE277     -0.1227
    130  CA        41.3750   33.8870   86.1770 C.3   277  PHE277      0.1736
    131  C         40.4110   34.8130   85.4370 C.2   277  PHE277      0.2595
    132  O         39.4350   35.2890   86.0130 O.2   277  PHE277     -0.2718
    133  CB        42.5420   34.7250   86.7160 C.3   277  PHE277      0.0547
    134  CG        43.5030   33.9650   87.5960 C.ar  277  PHE277     -0.0202
    135  CD1       44.8520   34.3140   87.6230 C.ar  277  PHE277     -0.0042
    136  CD2       43.0690   32.9120   88.3980 C.ar  277  PHE277     -0.0042
    137  CE1       45.7550   33.6270   88.4390 C.ar  277  PHE277     -0.0003
    138  CE2       43.9660   32.2110   89.2140 C.ar  277  PHE277     -0.0003
    139  CZ        45.3100   32.5730   89.2340 C.ar  277  PHE277     -0.0000
    140  N         40.7030   35.0800   84.1640 N.am  278  GLU278     -0.1979
    141  CA        39.9740   36.0830   83.3940 C.3   278  GLU278      0.1602
    142  C         39.9440   35.7310   81.9140 C.2   278  GLU278      0.2287
    143  O         40.7970   34.9730   81.4260 O.2   278  GLU278     -0.2864
    144  CB        40.6650   37.4520   83.5180 C.3   278  GLU278      0.0415
    145  CG        40.6770   38.0950   84.8940 C.3   278  GLU278      0.1163
    146  CD        41.3430   39.4540   84.8710 C.2   278  GLU278      0.3649
    147  OE1       40.8180   40.3550   84.1780 O.co2 278  GLU278     -0.2457
    148  OE2       42.3900   39.6200   85.5370 O.co2 278  GLU278     -0.2457
@<TRIPOS>BOND
     1    88    87    2
     2    87    86    1
     3    86    89    1
     4    86    85    1
     5    89    90    1
     6    90    92   ar
     7    90    91   ar
     8    92    94   ar
     9    91    93   ar
    10   102   103    1
    11   102   101    1
    12    97    98    1
    13    98   101    1
    14    98    99    1
    15   103   104    1
    16   143   142    2
    17    94    95   ar
    18    99   100    2
    19   106   105    1
    20    93    95   ar
    21   142   141    1
    22   104   105    2
    23    95    96    1
    24    81    80    2
    25   105   107    1
    26    80    79    1
    27   141   144    1
    28   141   140    1
    29   144   145    1
    30   140   131   am
    31   147   146   ar
    32    79    82    1
    33    79    78    1
    34   108   109    1
    35    82    83    1
    36   146   145    1
    37   146   148   ar
    38   116   114   ar
    39   113   114    1
    40   113   112    1
    41   129   130    1
    42   131   132    2
    43   131   130    1
    44    78    84    1
    45   114   115   ar
    46   109   112    1
    47   109   110    1
    48    83    84    1
    49   130   133    1
    50   110   111    2
    51   133   134    1
    52   120   119    2
    53   134   135   ar
    54   134   136   ar
    55   135   137   ar
    56   119   118    1
    57   136   138   ar
    58   137   139   ar
    59   118   121    1
    60   118   117    1
    61   121   122    1
    62   138   139   ar
    63     7     1    1
    64     7     6    1
    65     1     2    1
    66   123   122   ar
    67   123   125   ar
    68   122   124   ar
    69     6     5    1
    70    76    75    1
    71     2     5    1
    72     2     3    1
    73   125   127   ar
    74     4     3    2
    75   124   126   ar
    76    75    77    1
    77    75    72    1
    78    49    47   am
    79    74    73    2
    80    24    23    1
    81   127   126   ar
    82   127   128    1
    83    73    72    1
    84    48    47    2
    85    47    46    1
    86    72    71    1
    87    25    26    1
    88    57    56   ar
    89    40    39    1
    90    23    22    1
    91    58    56   ar
    92    71    61   am
    93    56    55    1
    94    26    27    1
    95    46    45    1
    96    22    21    1
    97    38    39   ar
    98    38    36   ar
    99    53    52    2
   100    39    37   ar
   101    45    42    1
   102    55    54    1
   103    61    62    2
   104    61    60    1
   105    36    34   ar
   106    54    51    1
   107    27    28    2
   108    52    51    1
   109    52    59   am
   110    37    35   ar
   111    21    20    1
   112    70    69    1
   113    67    69   ar
   114    67    65   ar
   115    60    59    1
   116    60    63    1
   117    15    13    1
   118    14    12    1
   119    50    51    1
   120    50    43   am
   121    69    68   ar
   122    65    64   ar
   123    42    43    1
   124    42    41    1
   125    20    17    1
   126    34    35   ar
   127    34    33    1
   128    43    44    2
   129    68    66   ar
   130    64    66   ar
   131    64    63    1
   132    13    12    1
   133    12     9    1
   134    33    30    1
   135    17    18    1
   136    17    16    1
   137    19    18    2
   138    11    10    2
   139     9     8    1
   140     9    10    1
   141    30    29    1
   142    30    31    1
   143    31    32    2
