@<TRIPOS>MOLECULE
tmp/2r86A00.pdb
 173 167 0 0 0
SMALL
GASTEIGER

@<TRIPOS>ATOM
      1  N         43.0620   49.7460    6.0040 N.3   116  PRO116     -0.2116
      2  CA        43.1870   49.7860    4.5480 C.3   116  PRO116      0.1372
      3  C         41.9600   50.4030    3.8720 C.2   116  PRO116      0.2244
      4  O         40.8200   50.0850    4.2300 O.2   116  PRO116     -0.2868
      5  CB        43.3110   48.3080    4.1660 C.3   116  PRO116      0.0268
      6  CG        43.7220   47.6190    5.4190 C.3   116  PRO116      0.0207
      7  CD        43.0220   48.3600    6.4970 C.3   116  PRO116      0.0892
      8  N         44.7570   44.8200   -3.2140 N.3   130  ILE130     -0.1245
      9  CA        44.5390   43.3900   -3.0890 C.3   130  ILE130      0.1561
     10  C         43.0560   43.1110   -3.3200 C.2   130  ILE130      0.2260
     11  O         42.1920   43.7990   -2.7720 O.2   130  ILE130     -0.2867
     12  CB        45.0460   42.8420   -1.7170 C.3   130  ILE130      0.0252
     13  CG1       44.8700   41.3230   -1.6300 C.3   130  ILE130      0.0019
     14  CG2       44.3900   43.5820   -0.5310 C.3   130  ILE130      0.0019
     15  CD1       45.4210   40.7150   -0.3550 C.3   130  ILE130      0.0001
     16  N         39.9230   40.3310   -3.1610 N.3   132  LYS132     -0.1245
     17  CA        39.4930   39.1280   -2.4530 C.3   132  LYS132      0.1561
     18  C         38.1250   38.6510   -2.9480 C.2   132  LYS132      0.2260
     19  O         37.0990   39.2590   -2.6200 O.2   132  LYS132     -0.2867
     20  CB        39.4240   39.3900   -0.9430 C.3   132  LYS132      0.0271
     21  CG        40.6350   40.0960   -0.3450 C.3   132  LYS132      0.0035
     22  CD        40.3860   40.4640    1.1120 C.3   132  LYS132      0.0206
     23  CE        41.6120   41.0940    1.7440 C.3   132  LYS132      0.1093
     24  NZ        41.3790   41.4400    3.1730 N.3   132  LYS132     -0.1314
     25  N         35.3320   34.8200    0.9520 N.3   136  ALA136     -0.1231
     26  CA        36.7410   34.7190    1.3430 C.3   136  ALA136      0.1694
     27  C         37.0050   33.5290    2.2660 C.2   136  ALA136      0.2592
     28  O         36.4390   33.4400    3.3610 O.2   136  ALA136     -0.2718
     29  CB        37.2180   36.0290    1.9850 C.3   136  ALA136      0.0304
     30  N         37.8590   32.6170    1.8030 N.am  137  LYS137     -0.1966
     31  CA        38.2240   31.4230    2.5670 C.3   137  LYS137      0.1728
     32  C         39.7260   31.3820    2.8740 C.2   137  LYS137      0.2617
     33  O         40.4780   30.6210    2.2550 O.2   137  LYS137     -0.2715
     34  CB        37.7840   30.1490    1.8300 C.3   137  LYS137      0.0311
     35  CG        36.2870   29.8830    1.8730 C.3   137  LYS137      0.0038
     36  CD        35.9470   28.5400    1.2410 C.3   137  LYS137      0.0206
     37  CE        34.4510   28.2540    1.3110 C.3   137  LYS137      0.1093
     38  NZ        33.6530   29.1440    0.4140 N.3   137  LYS137     -0.1314
     39  N         40.1500   32.2150    3.8240 N.am  138  GLY138     -0.1940
     40  CA        41.5390   32.2520    4.2890 C.3   138  GLY138      0.2014
     41  C         42.5840   32.5230    3.2200 C.2   138  GLY138      0.2639
     42  O         43.5830   31.7990    3.1210 O.2   138  GLY138     -0.2714
     43  N         42.3530   33.5590    2.4170 N.am  139  GLY139     -0.1954
     44  CA        43.3080   33.9750    1.3870 C.3   139  GLY139      0.1869
     45  C         43.2860   33.1580    0.1060 C.2   139  GLY139      0.2309
     46  O         44.2860   33.1060   -0.6140 O.2   139  GLY139     -0.2863
     47  N         43.4450   35.1560   -3.7020 N.3   142  TYR142     -0.1241
     48  CA        43.8270   36.5600   -3.5250 C.3   142  TYR142      0.1605
     49  C         44.9120   36.9590   -4.5220 C.2   142  TYR142      0.2264
     50  O         45.9100   36.2500   -4.6780 O.2   142  TYR142     -0.2867
     51  CB        44.3430   36.7960   -2.0990 C.3   142  TYR142      0.0534
     52  CG        43.2950   36.8760   -0.9990 C.ar  142  TYR142     -0.0201
     53  CD1       42.0380   36.2810   -1.1370 C.ar  142  TYR142     -0.0009
     54  CD2       43.5840   37.5220    0.2010 C.ar  142  TYR142     -0.0009
     55  CE1       41.0930   36.3500   -0.1140 C.ar  142  TYR142      0.0417
     56  CE2       42.6530   37.5930    1.2250 C.ar  142  TYR142      0.0417
     57  CZ        41.4090   37.0070    1.0640 C.ar  142  TYR142      0.1957
     58  OH        40.4870   37.0830    2.0810 O.3   142  TYR142     -0.2866
     59  N         40.7870   46.1920   -1.8390 N.3   173  GLN173     -0.1231
     60  CA        41.3360   46.8070   -0.6480 C.3   173  GLN173      0.1698
     61  C         42.7360   47.3120   -0.9350 C.2   173  GLN173      0.2592
     62  O         43.5140   46.6380   -1.6060 O.2   173  GLN173     -0.2718
     63  CB        41.3820   45.7570    0.4610 C.3   173  GLN173      0.0381
     64  CG        41.1880   46.2790    1.8610 C.3   173  GLN173      0.0905
     65  CD        41.0230   45.1540    2.8680 C.2   173  GLN173      0.2608
     66  OE1       41.8080   44.2060    2.8960 O.2   173  GLN173     -0.2717
     67  NE2       39.9930   45.2540    3.6980 N.am  173  GLN173     -0.0878
     68  N         43.0480   48.5020   -0.4310 N.am  174  GLU174     -0.1966
     69  CA        44.4080   49.0280   -0.4730 C.3   174  GLU174      0.1733
     70  C         45.3800   47.9660    0.0350 C.2   174  GLU174      0.2616
     71  O         45.1960   47.4180    1.1300 O.2   174  GLU174     -0.2715
     72  CB        44.5030   50.2860    0.3910 C.3   174  GLU174      0.0429
     73  CG        45.9180   50.7870    0.6400 C.3   174  GLU174      0.1163
     74  CD        45.9760   51.8810    1.6910 C.2   174  GLU174      0.3649
     75  OE1       44.9520   52.1320    2.3670 O.co2 174  GLU174     -0.2457
     76  OE2       47.0540   52.4920    1.8420 O.co2 174  GLU174     -0.2457
     77  N         46.3890   47.6510   -0.7680 N.am  175  TYR175     -0.1960
     78  CA        47.4130   46.7100   -0.3370 C.3   175  TYR175      0.1771
     79  C         48.4220   47.4170    0.5590 C.2   175  TYR175      0.2619
     80  O         49.1780   48.2730    0.0990 O.2   175  TYR175     -0.2715
     81  CB        48.1250   46.0530   -1.5190 C.3   175  TYR175      0.0574
     82  CG        49.2560   45.1440   -1.0770 C.ar  175  TYR175     -0.0198
     83  CD1       48.9950   43.8780   -0.5630 C.ar  175  TYR175     -0.0009
     84  CD2       50.5840   45.5590   -1.1590 C.ar  175  TYR175     -0.0009
     85  CE1       50.0150   43.0450   -0.1510 C.ar  175  TYR175      0.0417
     86  CE2       51.6180   44.7280   -0.7480 C.ar  175  TYR175      0.0417
     87  CZ        51.3240   43.4730   -0.2450 C.ar  175  TYR175      0.1957
     88  OH        52.3410   42.6410    0.1670 O.3   175  TYR175     -0.2866
     89  N         48.4270   47.0510    1.8370 N.am  176  VAL176     -0.1977
     90  CA        49.3160   47.6810    2.8120 C.3   176  VAL176      0.1596
     91  C         50.4880   46.7570    3.1410 C.2   176  VAL176      0.2287
     92  O         50.2920   45.6570    3.6630 O.2   176  VAL176     -0.2864
     93  CB        48.5570   48.0830    4.0960 C.3   176  VAL176      0.0276
     94  CG1       49.4760   48.8310    5.0530 C.3   176  VAL176      0.0022
     95  CG2       47.3370   48.9380    3.7480 C.3   176  VAL176      0.0022
     96  N         53.9590   42.2080   10.3920 N.3   180  PRO180     -0.2116
     97  CA        52.8850   41.8850   11.3360 C.3   180  PRO180      0.1372
     98  C         53.2790   42.2130   12.7810 C.2   180  PRO180      0.2244
     99  O         54.4050   41.9220   13.2080 O.2   180  PRO180     -0.2868
    100  CB        52.6840   40.3720   11.1510 C.3   180  PRO180      0.0268
    101  CG        53.2430   40.0670    9.7930 C.3   180  PRO180      0.0207
    102  CD        54.4020   41.0200    9.6360 C.3   180  PRO180      0.0892
    103  N         51.1860   42.4840   16.7130 N.3   182  TYR182     -0.1241
    104  CA        49.9480   42.2190   17.4510 C.3   182  TYR182      0.1605
    105  C         50.0420   42.6780   18.9150 C.2   182  TYR182      0.2264
    106  O         50.4470   41.8980   19.7860 O.2   182  TYR182     -0.2867
    107  CB        49.6230   40.7270   17.4160 C.3   182  TYR182      0.0534
    108  CG        49.4740   40.1170   16.0400 C.ar  182  TYR182     -0.0201
    109  CD1       50.5940   39.7760   15.2690 C.ar  182  TYR182     -0.0009
    110  CD2       48.2080   39.8370   15.5250 C.ar  182  TYR182     -0.0009
    111  CE1       50.4480   39.2030   14.0060 C.ar  182  TYR182      0.0417
    112  CE2       48.0530   39.2640   14.2750 C.ar  182  TYR182      0.0417
    113  CZ        49.1690   38.9520   13.5200 C.ar  182  TYR182      0.1957
    114  OH        48.9880   38.3750   12.2840 O.3   182  TYR182     -0.2866
    115  N         52.4760   36.7610   15.3120 N.3   202  ARG202     -0.1245
    116  CA        51.8090   35.4950   15.0650 C.3   202  ARG202      0.1563
    117  C         52.5330   34.7110   13.9720 C.2   202  ARG202      0.2260
    118  O         53.0050   35.2890   12.9950 O.2   202  ARG202     -0.2867
    119  CB        50.3440   35.7260   14.7080 C.3   202  ARG202      0.0307
    120  CG        49.4600   34.5010   14.9020 C.3   202  ARG202      0.0489
    121  CD        47.9950   34.8670   14.8910 C.3   202  ARG202      0.2205
    122  NE        47.5870   35.4160   13.6040 N.pl3 202  ARG202     -0.0865
    123  CZ        46.4140   36.0010   13.3770 C.cat 202  ARG202      0.5346
    124  NH1       45.5270   36.1210   14.3550 N.pl3 202  ARG202      0.1354
    125  NH2       46.1370   36.4750   12.1710 N.pl3 202  ARG202      0.1354
    126  N         52.5430   31.8040   11.1720 N.3   204  GLU204     -0.1245
    127  CA        51.5170   31.2770   10.2710 C.3   204  GLU204      0.1567
    128  C         52.0580   30.4230    9.1160 C.2   204  GLU204      0.2260
    129  O         53.1320   30.6970    8.5710 O.2   204  GLU204     -0.2867
    130  CB        50.6730   32.4250    9.7170 C.3   204  GLU204      0.0388
    131  CG        49.9440   33.2450   10.7690 C.3   204  GLU204      0.1160
    132  CD        49.6030   34.6500   10.2990 C.2   204  GLU204      0.3649
    133  OE1       50.4220   35.2740    9.5920 O.co2 204  GLU204     -0.2457
    134  OE2       48.5190   35.1440   10.6600 O.co2 204  GLU204     -0.2457
    135  N         47.3990   31.0030    5.6180 N.3   227  TYR227     -0.1241
    136  CA        47.6210   31.7920    6.8180 C.3   227  TYR227      0.1605
    137  C         47.1150   31.0790    8.0710 C.2   227  TYR227      0.2264
    138  O         46.6220   31.7180    9.0050 O.2   227  TYR227     -0.2867
    139  CB        46.9500   33.1630    6.6580 C.3   227  TYR227      0.0534
    140  CG        47.4710   33.9320    5.4750 C.ar  227  TYR227     -0.0201
    141  CD1       48.5580   34.7820    5.6150 C.ar  227  TYR227     -0.0009
    142  CD2       46.8960   33.7900    4.2050 C.ar  227  TYR227     -0.0009
    143  CE1       49.0610   35.4800    4.5400 C.ar  227  TYR227      0.0417
    144  CE2       47.3980   34.4870    3.1120 C.ar  227  TYR227      0.0417
    145  CZ        48.4800   35.3340    3.2970 C.ar  227  TYR227      0.1957
    146  OH        49.0140   36.0420    2.2480 O.3   227  TYR227     -0.2866
    147  N         49.8140   45.7920   10.7900 N.3   272  VAL272     -0.1245
    148  CA        51.1790   45.8230   10.2960 C.3   272  VAL272      0.1561
    149  C         51.7960   47.1810   10.5710 C.2   272  VAL272      0.2260
    150  O         51.0890   48.1850   10.6530 O.2   272  VAL272     -0.2867
    151  CB        51.2600   45.5070    8.7690 C.3   272  VAL272      0.0252
    152  CG1       50.7700   44.0930    8.4710 C.3   272  VAL272      0.0019
    153  CG2       50.4840   46.5370    7.9350 C.3   272  VAL272      0.0019
    154  N         44.1690   45.5260   10.4500 N.3   282  PHE282     -0.1227
    155  CA        43.2880   44.7020    9.6200 C.3   282  PHE282      0.1736
    156  C         42.0520   44.2170   10.3850 C.2   282  PHE282      0.2595
    157  O         40.9740   44.0790    9.8020 O.2   282  PHE282     -0.2718
    158  CB        44.0190   43.4710    9.0780 C.3   282  PHE282      0.0547
    159  CG        45.2170   43.7780    8.2140 C.ar  282  PHE282     -0.0202
    160  CD1       46.2930   42.8950    8.1830 C.ar  282  PHE282     -0.0042
    161  CD2       45.2720   44.9310    7.4290 C.ar  282  PHE282     -0.0042
    162  CE1       47.4020   43.1470    7.3840 C.ar  282  PHE282     -0.0003
    163  CE2       46.3770   45.2000    6.6320 C.ar  282  PHE282     -0.0003
    164  CZ        47.4460   44.3070    6.6060 C.ar  282  PHE282     -0.0000
    165  N         42.2170   43.9330   11.6780 N.am  283  GLU283     -0.1979
    166  CA        41.1430   43.3640   12.5010 C.3   283  GLU283      0.1602
    167  C         41.2800   43.7490   13.9690 C.2   283  GLU283      0.2287
    168  O         42.3850   43.9640   14.4680 O.2   283  GLU283     -0.2864
    169  CB        41.1220   41.8310   12.3940 C.3   283  GLU283      0.0415
    170  CG        40.8680   41.2810   10.9860 C.3   283  GLU283      0.1163
    171  CD        40.7450   39.7680   10.9380 C.2   283  GLU283      0.3649
    172  OE1       40.4060   39.1560   11.9820 O.co2 283  GLU283     -0.2457
    173  OE2       40.9780   39.1930    9.8460 O.co2 283  GLU283     -0.2457
@<TRIPOS>BOND
     1    50    49    2
     2    49    48    1
     3    47    48    1
     4    48    51    1
     5    10     9    1
     6    10    11    2
     7     8     9    1
     8    16    17    1
     9     9    12    1
    10    18    19    2
    11    18    17    1
    12    17    20    1
    13    51    52    1
    14    59    60    1
    15    12    13    1
    16    12    14    1
    17    13    15    1
    18    62    61    2
    19    81    82    1
    20    81    78    1
    21    84    82   ar
    22    84    86   ar
    23    53    52   ar
    24    53    55   ar
    25    82    83   ar
    26    52    54   ar
    27    20    21    1
    28    61    60    1
    29    61    68   am
    30    77    78    1
    31    77    70   am
    32    86    87   ar
    33    60    63    1
    34    46    45    2
    35    83    85   ar
    36    69    68    1
    37    69    70    1
    38    69    72    1
    39    21    22    1
    40    78    79    1
    41    87    85   ar
    42    87    88    1
    43    55    57   ar
    44    70    71    2
    45    80    79    2
    46    45    44    1
    47    54    56   ar
    48    72    73    1
    49    38    37    1
    50    63    64    1
    51    79    89   am
    52    73    74    1
    53    25    26    1
    54    57    56   ar
    55    57    58    1
    56    22    23    1
    57    36    37    1
    58    36    35    1
    59    26    29    1
    60    26    27    1
    61    44    43    1
    62    74    76   ar
    63    74    75   ar
    64    23    24    1
    65    30    27   am
    66    30    31    1
    67    34    35    1
    68    34    31    1
    69    89    90    1
    70    64    65    1
    71   146   145    1
    72    33    32    2
    73    27    28    2
    74    43    41   am
    75    31    32    1
    76    90    91    1
    77    90    93    1
    78    65    66    2
    79    65    67   am
    80    32    39   am
    81   144   145   ar
    82   144   142   ar
    83    42    41    2
    84    91    92    2
    85    41    40    1
    86   145   143   ar
    87    95    93    1
    88    39    40    1
    89     3     4    2
    90     3     2    1
    91    93    94    1
    92     5     2    1
    93     5     6    1
    94   142   140   ar
    95   143   141   ar
    96     2     1    1
    97     6     7    1
    98   140   141   ar
    99   140   139    1
   100   135   136    1
   101     1     7    1
   102   164   163   ar
   103   164   162   ar
   104   163   161   ar
   105   139   136    1
   106   136   137    1
   107   162   160   ar
   108   161   159   ar
   109   153   151    1
   110   137   138    2
   111   160   159   ar
   112   159   158    1
   113   152   151    1
   114   129   128    2
   115   151   148    1
   116   158   155    1
   117   128   127    1
   118   133   132   ar
   119   155   156    1
   120   155   154    1
   121   102   101    1
   122   102    96    1
   123   130   127    1
   124   130   131    1
   125   101   100    1
   126   157   156    2
   127   173   171   ar
   128   127   126    1
   129   148   149    1
   130   148   147    1
   131   132   134   ar
   132   132   131    1
   133   156   165   am
   134    96    97    1
   135   149   150    2
   136   171   170    1
   137   171   172   ar
   138   170   169    1
   139   100    97    1
   140    97    98    1
   141   165   166    1
   142   125   123    1
   143   114   113    1
   144   169   166    1
   145   166   167    1
   146    98    99    2
   147   118   117    2
   148   123   122    2
   149   123   124    1
   150   113   111   ar
   151   113   112   ar
   152   122   121    1
   153   167   168    2
   154   117   116    1
   155   111   109   ar
   156   112   110   ar
   157   119   120    1
   158   119   116    1
   159   121   120    1
   160   116   115    1
   161   109   108   ar
   162   110   108   ar
   163   108   107    1
   164   103   104    1
   165   107   104    1
   166   104   105    1
   167   105   106    2
