@<TRIPOS>MOLECULE
tmp/2r87E00.pdb
 193 185 0 0 0
SMALL
GASTEIGER

@<TRIPOS>ATOM
      1  N         38.6470   -6.1970   41.4240 N.3   101  ARG101     -0.1245
      2  CA        38.3200   -4.9910   42.2010 C.3   101  ARG101      0.1563
      3  C         39.3320   -3.8550   42.0260 C.2   101  ARG101      0.2260
      4  O         38.9590   -2.6820   42.0550 O.2   101  ARG101     -0.2867
      5  CB        38.1480   -5.3170   43.6920 C.3   101  ARG101      0.0307
      6  CG        36.9520   -6.2080   44.0220 C.3   101  ARG101      0.0489
      7  CD        36.5220   -6.0230   45.4690 C.3   101  ARG101      0.2205
      8  NE        35.9110   -7.2230   46.0420 N.pl3 101  ARG101     -0.0865
      9  CZ        34.6120   -7.5100   45.9920 C.cat 101  ARG101      0.5346
     10  NH1       34.1670   -8.6260   46.5480 N.pl3 101  ARG101      0.1354
     11  NH2       33.7550   -6.6890   45.3900 N.pl3 101  ARG101      0.1354
     12  N         34.0330    5.0310   46.7360 N.3   116  PRO116     -0.2116
     13  CA        34.2960    5.0190   48.1730 C.3   116  PRO116      0.1372
     14  C         35.7840    4.8530   48.4640 C.2   116  PRO116      0.2244
     15  O         36.5110    4.2610   47.6640 O.2   116  PRO116     -0.2868
     16  CB        33.5320    3.7850   48.6660 C.3   116  PRO116      0.0268
     17  CG        32.6540    3.3650   47.5330 C.3   116  PRO116      0.0207
     18  CD        33.3620    3.7940   46.3000 C.3   116  PRO116      0.0892
     19  N         32.8490   -1.3980   54.9570 N.3   130  ILE130     -0.1245
     20  CA        32.2940   -2.6660   54.5160 C.3   130  ILE130      0.1561
     21  C         33.4610   -3.4920   53.9710 C.2   130  ILE130      0.2260
     22  O         34.3120   -2.9750   53.2370 O.2   130  ILE130     -0.2867
     23  CB        31.1310   -2.4750   53.4840 C.3   130  ILE130      0.0252
     24  CG1       30.4310   -3.8090   53.1900 C.3   130  ILE130      0.0019
     25  CG2       31.6120   -1.7740   52.2060 C.3   130  ILE130      0.0019
     26  CD1       29.0970   -3.6680   52.4710 C.3   130  ILE130      0.0001
     27  N         34.9350   -6.7460   51.8880 N.3   132  LYS132     -0.1245
     28  CA        34.5630   -7.5590   50.7290 C.3   132  LYS132      0.1561
     29  C         35.6030   -8.6450   50.4170 C.2   132  LYS132      0.2260
     30  O         36.6770   -8.3400   49.8910 O.2   132  LYS132     -0.2867
     31  CB        34.3590   -6.6620   49.5000 C.3   132  LYS132      0.0271
     32  CG        33.3900   -5.5030   49.7100 C.3   132  LYS132      0.0035
     33  CD        33.3090   -4.6140   48.4800 C.3   132  LYS132      0.0206
     34  CE        32.0670   -3.7460   48.5310 C.3   132  LYS132      0.1093
     35  NZ        31.9190   -2.8550   47.3420 N.3   132  LYS132     -0.1314
     36  N         33.4130  -11.3320   45.4090 N.3   136  ALA136     -0.1231
     37  CA        32.1820  -11.9690   45.8700 C.3   136  ALA136      0.1694
     38  C         30.9660  -11.6380   45.0110 C.2   136  ALA136      0.2592
     39  O         30.7630  -10.4860   44.6100 O.2   136  ALA136     -0.2718
     40  CB        31.9160  -11.5970   47.3230 C.3   136  ALA136      0.0304
     41  N         30.1670  -12.6660   44.7360 N.am  137  LYS137     -0.1966
     42  CA        28.8870  -12.5020   44.0580 C.3   137  LYS137      0.1728
     43  C         27.7470  -12.5820   45.0750 C.2   137  LYS137      0.2617
     44  O         27.6990  -13.5030   45.8990 O.2   137  LYS137     -0.2715
     45  CB        28.7140  -13.5390   42.9410 C.3   137  LYS137      0.0311
     46  CG        29.2250  -14.9480   43.2740 C.3   137  LYS137      0.0038
     47  CD        28.9880  -15.9390   42.1290 C.3   137  LYS137      0.0206
     48  CE        30.0600  -15.8460   41.0390 C.3   137  LYS137      0.1093
     49  NZ        29.8600  -14.6880   40.1180 N.3   137  LYS137     -0.1314
     50  N         26.8450  -11.6030   45.0160 N.am  138  GLY138     -0.1940
     51  CA        25.7510  -11.4860   45.9790 C.3   138  GLY138      0.2014
     52  C         26.2150  -11.0510   47.3580 C.2   138  GLY138      0.2639
     53  O         25.6070  -11.4130   48.3710 O.2   138  GLY138     -0.2714
     54  N         27.2980  -10.2770   47.3870 N.am  139  GLY139     -0.1954
     55  CA        27.8840   -9.7630   48.6240 C.3   139  GLY139      0.1869
     56  C         28.1680  -10.8090   49.6890 C.2   139  GLY139      0.2309
     57  O         27.9020  -10.5740   50.8710 O.2   139  GLY139     -0.2863
     58  N         30.5600  -10.5480   53.1780 N.3   142  TYR142     -0.1241
     59  CA        30.5370   -9.1270   53.5370 C.3   142  TYR142      0.1605
     60  C         30.1640   -8.9060   55.0040 C.2   142  TYR142      0.2264
     61  O         29.2840   -9.5890   55.5410 O.2   142  TYR142     -0.2867
     62  CB        29.5370   -8.3710   52.6540 C.3   142  TYR142      0.0534
     63  CG        29.9760   -8.0870   51.2290 C.ar  142  TYR142     -0.0201
     64  CD1       30.8320   -8.9540   50.5430 C.ar  142  TYR142     -0.0009
     65  CD2       29.5020   -6.9630   50.5530 C.ar  142  TYR142     -0.0009
     66  CE1       31.2230   -8.6950   49.2290 C.ar  142  TYR142      0.0417
     67  CE2       29.8830   -6.6950   49.2380 C.ar  142  TYR142      0.0417
     68  CZ        30.7430   -7.5700   48.5810 C.ar  142  TYR142      0.1957
     69  OH        31.1290   -7.3180   47.2810 O.3   142  TYR142     -0.2866
     70  N         36.5260   -1.2100   52.4350 N.3   173  GLN173     -0.1231
     71  CA        35.9740   -0.0460   51.7600 C.3   173  GLN173      0.1698
     72  C         35.0600    0.7680   52.6750 C.2   173  GLN173      0.2592
     73  O         34.2110    0.2190   53.3780 O.2   173  GLN173     -0.2718
     74  CB        35.2180   -0.4950   50.5030 C.3   173  GLN173      0.0381
     75  CG        34.8710    0.6150   49.5300 C.3   173  GLN173      0.0905
     76  CD        34.1670    0.1040   48.2810 C.2   173  GLN173      0.2608
     77  OE1       33.1290   -0.5540   48.3570 O.2   173  GLN173     -0.2717
     78  NE2       34.7340    0.4120   47.1210 N.am  173  GLN173     -0.0878
     79  N         35.2520    2.0820   52.6530 N.am  174  GLU174     -0.1966
     80  CA        34.3650    3.0250   53.3240 C.3   174  GLU174      0.1733
     81  C         32.8990    2.7130   52.9950 C.2   174  GLU174      0.2616
     82  O         32.5150    2.6560   51.8230 O.2   174  GLU174     -0.2715
     83  CB        34.7230    4.4500   52.8890 C.3   174  GLU174      0.0429
     84  CG        33.7650    5.5310   53.3560 C.3   174  GLU174      0.1163
     85  CD        33.8600    6.8040   52.5260 C.2   174  GLU174      0.3649
     86  OE1       34.6980    6.8710   51.5980 O.co2 174  GLU174     -0.2457
     87  OE2       33.0830    7.7430   52.8010 O.co2 174  GLU174     -0.2457
     88  N         32.0980    2.4840   54.0340 N.am  175  TYR175     -0.1960
     89  CA        30.6590    2.3280   53.8660 C.3   175  TYR175      0.1771
     90  C         30.0720    3.6900   53.5490 C.2   175  TYR175      0.2619
     91  O         30.2280    4.6370   54.3250 O.2   175  TYR175     -0.2715
     92  CB        30.0030    1.7550   55.1270 C.3   175  TYR175      0.0574
     93  CG        28.5490    1.3530   54.9330 C.ar  175  TYR175     -0.0198
     94  CD1       28.2090    0.0370   54.6320 C.ar  175  TYR175     -0.0009
     95  CD2       27.5170    2.2920   55.0390 C.ar  175  TYR175     -0.0009
     96  CE1       26.8790   -0.3460   54.4470 C.ar  175  TYR175      0.0417
     97  CE2       26.1800    1.9240   54.8560 C.ar  175  TYR175      0.0417
     98  CZ        25.8690    0.6010   54.5580 C.ar  175  TYR175      0.1957
     99  OH        24.5560    0.2180   54.3740 O.3   175  TYR175     -0.2866
    100  N         29.4160    3.7910   52.3970 N.am  176  VAL176     -0.1977
    101  CA        28.7760    5.0360   51.9960 C.3   176  VAL176      0.1596
    102  C         27.2850    4.9500   52.3130 C.2   176  VAL176      0.2287
    103  O         26.5930    4.0300   51.8640 O.2   176  VAL176     -0.2864
    104  CB        28.9970    5.3570   50.5000 C.3   176  VAL176      0.0276
    105  CG1       28.5290    6.7640   50.1910 C.3   176  VAL176      0.0022
    106  CG2       30.4690    5.1900   50.1120 C.3   176  VAL176      0.0022
    107  N         20.4440    2.9650   47.3810 N.3   180  PRO180     -0.2116
    108  CA        20.8710    2.2070   46.2010 C.3   180  PRO180      0.1372
    109  C         20.1760    2.6830   44.9230 C.2   180  PRO180      0.2244
    110  O         18.9440    2.8160   44.8900 O.2   180  PRO180     -0.2868
    111  CB        20.4490    0.7700   46.5270 C.3   180  PRO180      0.0268
    112  CG        20.3060    0.7300   48.0010 C.3   180  PRO180      0.0207
    113  CD        19.8460    2.0900   48.4080 C.3   180  PRO180      0.0892
    114  N         20.5690    2.1200   40.5160 N.3   182  TYR182     -0.1241
    115  CA        21.1800    1.3280   39.4440 C.3   182  TYR182      0.1605
    116  C         20.7600    1.8150   38.0490 C.2   182  TYR182      0.2264
    117  O         19.8060    1.2900   37.4630 O.2   182  TYR182     -0.2867
    118  CB        20.8310   -0.1580   39.6040 C.3   182  TYR182      0.0534
    119  CG        21.2460   -0.7860   40.9210 C.ar  182  TYR182     -0.0201
    120  CD1       20.4930   -0.5900   42.0830 C.ar  182  TYR182     -0.0009
    121  CD2       22.3760   -1.6020   40.9990 C.ar  182  TYR182     -0.0009
    122  CE1       20.8710   -1.1720   43.2960 C.ar  182  TYR182      0.0417
    123  CE2       22.7610   -2.1910   42.2090 C.ar  182  TYR182      0.0417
    124  CZ        22.0030   -1.9730   43.3510 C.ar  182  TYR182      0.1957
    125  OH        22.3800   -2.5510   44.5480 O.3   182  TYR182     -0.2866
    126  N         17.7560   -2.5290   43.2260 N.3   202  ARG202     -0.1245
    127  CA        17.8630   -3.9720   43.4450 C.3   202  ARG202      0.1563
    128  C         17.3110   -4.3420   44.8220 C.2   202  ARG202      0.2260
    129  O         17.4520   -3.5880   45.7820 O.2   202  ARG202     -0.2867
    130  CB        19.3140   -4.4330   43.2890 C.3   202  ARG202      0.0307
    131  CG        19.4830   -5.9200   43.0260 C.3   202  ARG202      0.0489
    132  CD        20.8370   -6.2280   42.4020 C.3   202  ARG202      0.2205
    133  NE        21.9500   -5.8830   43.2830 N.pl3 202  ARG202     -0.0865
    134  CZ        23.2300   -5.8850   42.9210 C.cat 202  ARG202      0.5346
    135  NH1       23.5800   -6.2190   41.6840 N.pl3 202  ARG202      0.1354
    136  NH2       24.1620   -5.5480   43.8020 N.pl3 202  ARG202      0.1354
    137  N         17.2300   -6.9990   47.8790 N.3   204  GLU204     -0.1245
    138  CA        18.2490   -7.8830   48.4480 C.3   204  GLU204      0.1567
    139  C         17.8940   -8.3870   49.8460 C.2   204  GLU204      0.2260
    140  O         17.3770   -7.6330   50.6720 O.2   204  GLU204     -0.2867
    141  CB        19.6060   -7.1620   48.4770 C.3   204  GLU204      0.0388
    142  CG        20.2240   -6.9030   47.1040 C.3   204  GLU204      0.1160
    143  CD        21.2190   -5.7500   47.0970 C.2   204  GLU204      0.3649
    144  OE1       21.2060   -4.9320   48.0410 O.co2 204  GLU204     -0.2457
    145  OE2       22.0140   -5.6480   46.1350 O.co2 204  GLU204     -0.2457
    146  N         23.4450   -9.6790   51.4080 N.3   227  TYR227     -0.1241
    147  CA        23.0560   -8.8740   50.2630 C.3   227  TYR227      0.1605
    148  C         22.6980   -9.7520   49.0660 C.2   227  TYR227      0.2264
    149  O         22.9420   -9.3770   47.9120 O.2   227  TYR227     -0.2867
    150  CB        24.1860   -7.9030   49.9010 C.3   227  TYR227      0.0534
    151  CG        24.5520   -6.9240   50.9980 C.ar  227  TYR227     -0.0201
    152  CD1       23.9390   -5.6740   51.0770 C.ar  227  TYR227     -0.0009
    153  CD2       25.5270   -7.2410   51.9500 C.ar  227  TYR227     -0.0009
    154  CE1       24.2800   -4.7630   52.0730 C.ar  227  TYR227      0.0417
    155  CE2       25.8730   -6.3360   52.9570 C.ar  227  TYR227      0.0417
    156  CZ        25.2420   -5.1010   53.0090 C.ar  227  TYR227      0.1957
    157  OH        25.5740   -4.2050   53.9960 O.3   227  TYR227     -0.2866
    158  N         26.6530    0.5910   39.4400 N.3   270  GLU270     -0.1245
    159  CA        25.9720    0.2180   40.6770 C.3   270  GLU270      0.1567
    160  C         26.4880    1.0840   41.8120 C.2   270  GLU270      0.2260
    161  O         27.6870    1.0820   42.0910 O.2   270  GLU270     -0.2867
    162  CB        26.2060   -1.2640   40.9920 C.3   270  GLU270      0.0388
    163  CG        25.9080   -2.2220   39.8250 C.3   270  GLU270      0.1160
    164  CD        25.9180   -3.6900   40.2360 C.2   270  GLU270      0.3649
    165  OE1       26.2770   -4.0010   41.3910 O.co2 270  GLU270     -0.2457
    166  OE2       25.5640   -4.5410   39.4020 O.co2 270  GLU270     -0.2457
    167  N         25.2400    4.3740   45.1100 N.3   272  VAL272     -0.1245
    168  CA        24.3020    5.0560   46.0020 C.3   272  VAL272      0.1561
    169  C         24.2560    6.5650   45.7520 C.2   272  VAL272      0.2260
    170  O         25.2260    7.1670   45.2710 O.2   272  VAL272     -0.2867
    171  CB        24.6070    4.7990   47.5140 C.3   272  VAL272      0.0252
    172  CG1       24.3850    3.3380   47.8850 C.3   272  VAL272      0.0019
    173  CG2       26.0230    5.2490   47.8880 C.3   272  VAL272      0.0019
    174  N         29.9990    1.7360   43.2970 N.3   282  PHE282     -0.1227
    175  CA        30.6940    0.5690   43.8660 C.3   282  PHE282      0.1736
    176  C         31.3180   -0.3350   42.8020 C.2   282  PHE282      0.2595
    177  O         32.4140   -0.8620   42.9950 O.2   282  PHE282     -0.2718
    178  CB        29.7620   -0.2600   44.7590 C.3   282  PHE282      0.0547
    179  CG        29.0620    0.5380   45.8280 C.ar  282  PHE282     -0.0202
    180  CD1       27.7430    0.2500   46.1720 C.ar  282  PHE282     -0.0042
    181  CD2       29.7180    1.5810   46.4910 C.ar  282  PHE282     -0.0042
    182  CE1       27.0890    0.9840   47.1620 C.ar  282  PHE282     -0.0003
    183  CE2       29.0710    2.3280   47.4730 C.ar  282  PHE282     -0.0003
    184  CZ        27.7560    2.0260   47.8170 C.ar  282  PHE282     -0.0000
    185  N         30.6060   -0.5360   41.6940 N.am  283  GLU283     -0.1979
    186  CA        31.1420   -1.3100   40.5720 C.3   283  GLU283      0.1602
    187  C         30.5430   -0.9200   39.2210 C.2   283  GLU283      0.2287
    188  O         29.4340   -0.3840   39.1440 O.2   283  GLU283     -0.2864
    189  CB        31.0110   -2.8270   40.8150 C.3   283  GLU283      0.0415
    190  CG        29.5890   -3.3790   40.8630 C.3   283  GLU283      0.1163
    191  CD        29.5570   -4.9070   40.9120 C.2   283  GLU283      0.3649
    192  OE1       28.9670   -5.5270   39.9960 O.co2 283  GLU283     -0.2457
    193  OE2       30.1280   -5.4930   41.8620 O.co2 283  GLU283     -0.2457
@<TRIPOS>BOND
     1   117   116    2
     2   116   115    1
     3   188   187    2
     4   187   186    1
     5   166   164   ar
     6   158   159    1
     7   115   118    1
     8   115   114    1
     9   118   119    1
    10   163   164    1
    11   163   162    1
    12   192   191   ar
    13    49    48    1
    14   164   165   ar
    15   186   189    1
    16   186   185    1
    17   159   162    1
    18   159   160    1
    19   189   190    1
    20   190   191    1
    21   191   193   ar
    22   119   121   ar
    23   119   120   ar
    24   121   123   ar
    25    48    47    1
    26     1     2    1
    27   135   134    1
    28   185   176   am
    29   160   161    2
    30     3     4    2
    31     3     2    1
    32   120   122   ar
    33    47    46    1
    34     2     5    1
    35   123   124   ar
    36   132   131    1
    37   132   133    1
    38   176   177    2
    39   176   175    1
    40   134   133    2
    41   134   136    1
    42    45    46    1
    43    45    42    1
    44   131   130    1
    45   126   127    1
    46   130   127    1
    47   122   124   ar
    48   174   175    1
    49   124   125    1
    50   127   128    1
    51     5     6    1
    52   175   178    1
    53     6     7    1
    54    42    41    1
    55    42    43    1
    56    39    38    2
    57    41    38   am
    58   178   179    1
    59   128   129    2
    60   110   109    2
    61   109   108    1
    62    38    37    1
    63    50    43   am
    64    50    51    1
    65    43    44    2
    66   167   168    1
    67   170   169    2
    68    11     9    1
    69    36    37    1
    70     7     8    1
    71   169   168    1
    72   179   180   ar
    73   179   181   ar
    74    37    40    1
    75    51    52    1
    76     9     8    2
    77     9    10    1
    78   168   171    1
    79   145   143   ar
    80   180   182   ar
    81   108   111    1
    82   108   107    1
    83    18    12    1
    84    18    17    1
    85   181   183   ar
    86   111   112    1
    87    12    13    1
    88   143   142    1
    89   143   144   ar
    90   142   141    1
    91    78    76   am
    92   182   184   ar
    93    69    68    1
    94    35    34    1
    95    52    54   am
    96    52    53    2
    97   107   113    1
    98    54    55    1
    99   183   184   ar
   100   171   172    1
   101   171   173    1
   102    17    16    1
   103    15    14    2
   104   137   138    1
   105   149   148    2
   106   112   113    1
   107    13    14    1
   108    13    16    1
   109    76    77    2
   110    76    75    1
   111   138   141    1
   112   138   139    1
   113    33    34    1
   114    33    32    1
   115    68    66   ar
   116    68    67   ar
   117    55    56    1
   118   148   147    1
   119    66    64   ar
   120    67    65   ar
   121    31    32    1
   122    31    28    1
   123    75    74    1
   124    56    57    2
   125   139   140    2
   126    30    29    2
   127   150   147    1
   128   150   151    1
   129   106   104    1
   130   105   104    1
   131   147   146    1
   132    29    28    1
   133   104   101    1
   134    74    71    1
   135    64    63   ar
   136    65    63   ar
   137    28    27    1
   138   151   152   ar
   139   151   153   ar
   140   152   154   ar
   141    63    62    1
   142    86    85   ar
   143    71    70    1
   144    71    72    1
   145    82    81    2
   146   103   102    2
   147   153   155   ar
   148   101   102    1
   149   101   100    1
   150   154   156   ar
   151    25    23    1
   152   100    90   am
   153    26    24    1
   154    85    87   ar
   155    85    84    1
   156    79    72   am
   157    79    80    1
   158    62    59    1
   159    72    73    2
   160    83    80    1
   161    83    84    1
   162   155   156   ar
   163    81    80    1
   164    81    88   am
   165   156   157    1
   166    58    59    1
   167    24    23    1
   168    22    21    2
   169    23    20    1
   170    59    60    1
   171    90    89    1
   172    90    91    2
   173    89    88    1
   174    89    92    1
   175    21    20    1
   176    99    98    1
   177    96    98   ar
   178    96    94   ar
   179    20    19    1
   180    98    97   ar
   181    94    93   ar
   182    97    95   ar
   183    93    95   ar
   184    93    92    1
   185    60    61    2
