@<TRIPOS>MOLECULE
tmp/2r8aB01.pdb
 136 134 0 0 0
SMALL
GASTEIGER

@<TRIPOS>ATOM
      1  N        -25.3060  -47.6070    7.7370 N.3    37  PHE37      -0.1241
      2  CA       -24.1380  -47.0570    8.3790 C.3    37  PHE37       0.1605
      3  C        -24.0820  -47.5580    9.8070 C.2    37  PHE37       0.2264
      4  O        -25.1210  -47.7350   10.4500 O.2    37  PHE37      -0.2867
      5  CB       -24.2350  -45.5450    8.3570 C.3    37  PHE37       0.0534
      6  CG       -23.1840  -44.8590    9.1630 C.ar   37  PHE37      -0.0203
      7  CD1      -21.9910  -44.4580    8.5730 C.ar   37  PHE37      -0.0042
      8  CD2      -23.4060  -44.5720   10.5170 C.ar   37  PHE37      -0.0042
      9  CE1      -21.0370  -43.7720    9.3190 C.ar   37  PHE37      -0.0003
     10  CE2      -22.4630  -43.8930   11.2630 C.ar   37  PHE37      -0.0003
     11  CZ       -21.2770  -43.4890   10.6680 C.ar   37  PHE37      -0.0000
     12  N        -21.4680  -47.3700   13.5270 N.3    39  ALA39      -0.1231
     13  CA       -20.2640  -46.8930   14.1820 C.3    39  ALA39       0.1694
     14  C        -20.3060  -47.2890   15.6570 C.2    39  ALA39       0.2593
     15  O        -21.3690  -47.6160   16.2110 O.2    39  ALA39      -0.2718
     16  CB       -20.1370  -45.3810   14.0210 C.3    39  ALA39       0.0304
     17  N        -19.1380  -47.2910   16.2840 N.am   40  GLY40      -0.1942
     18  CA       -19.0730  -47.6580   17.6810 C.3    40  GLY40       0.2014
     19  C        -17.6550  -47.9460   18.1000 C.2    40  GLY40       0.2638
     20  O        -16.6950  -47.5830   17.4080 O.2    40  GLY40      -0.2714
     21  N        -17.5210  -48.6010   19.2450 N.am   41  ALA41      -0.1977
     22  CA       -16.2080  -48.9490   19.7400 C.3    41  ALA41       0.1597
     23  C        -16.2510  -50.1130   20.6980 C.2    41  ALA41       0.2287
     24  O        -17.3140  -50.5400   21.1700 O.2    41  ALA41      -0.2864
     25  CB       -15.5770  -47.7620   20.4040 C.3    41  ALA41       0.0319
     26  N         -9.2630  -48.3900   23.7330 N.3    70  TRP70      -0.1227
     27  CA       -10.5600  -48.0830   23.1830 C.3    70  TRP70       0.1737
     28  C        -10.3510  -48.2480   21.6920 C.2    70  TRP70       0.2595
     29  O         -9.4020  -47.6910   21.1410 O.2    70  TRP70      -0.2718
     30  CB       -10.9370  -46.6480   23.5170 C.3    70  TRP70       0.0564
     31  CG       -12.2960  -46.5080   24.1210 C.ar   70  TRP70       0.0003
     32  CD1      -12.7960  -47.2030   25.1840 C.ar   70  TRP70       0.0946
     33  CD2      -13.3170  -45.5820   23.7310 C.ar   70  TRP70       0.0152
     34  NE1      -14.0670  -46.7680   25.4870 N.ar   70  TRP70      -0.2442
     35  CE2      -14.4120  -45.7730   24.6110 C.ar   70  TRP70       0.0810
     36  CE3      -13.4150  -44.6030   22.7230 C.ar   70  TRP70       0.0012
     37  CZ2      -15.5960  -45.0210   24.5120 C.ar   70  TRP70       0.0191
     38  CZ3      -14.5940  -43.8510   22.6220 C.ar   70  TRP70       0.0001
     39  CH2      -15.6680  -44.0670   23.5140 C.ar   70  TRP70       0.0015
     40  N        -11.2080  -49.0480   21.0590 N.am   71  VAL71      -0.1966
     41  CA       -11.1240  -49.2820   19.6210 C.3    71  VAL71       0.1712
     42  C        -12.4230  -48.9420   18.9060 C.2    71  VAL71       0.2458
     43  O        -13.4730  -49.5670   19.1230 O.2    71  VAL71      -0.2730
     44  CB       -10.7950  -50.7360   19.2730 C.3    71  VAL71       0.0289
     45  CG1      -10.3340  -50.8060   17.8220 C.3    71  VAL71       0.0023
     46  CG2       -9.7460  -51.2820   20.2230 C.3    71  VAL71       0.0023
     47  N        -12.3540  -47.9540   18.0150 N.am   72  PRO72      -0.2716
     48  CA       -13.4590  -47.4430   17.2060 C.3    72  PRO72       0.1536
     49  C        -13.6210  -48.2770   15.9560 C.2    72  PRO72       0.2599
     50  O        -12.6820  -48.9550   15.5510 O.2    72  PRO72      -0.2715
     51  CB       -12.9890  -46.0480   16.8620 C.3    72  PRO72       0.0310
     52  CG       -11.5330  -46.3080   16.5900 C.3    72  PRO72       0.0237
     53  CD       -11.1140  -47.2170   17.7260 C.3    72  PRO72       0.0939
     54  N        -14.8070  -48.2210   15.3560 N.am   73  ASN73      -0.1959
     55  CA       -15.1020  -48.9290   14.1080 C.3    73  ASN73       0.1819
     56  C        -16.1760  -48.1180   13.4280 C.2    73  ASN73       0.2621
     57  O        -17.0660  -47.5800   14.0850 O.2    73  ASN73      -0.2715
     58  CB       -15.6120  -50.3360   14.3760 C.3    73  ASN73       0.1195
     59  CG       -16.8090  -50.3510   15.2990 C.2    73  ASN73       0.2630
     60  OD1      -17.9430  -50.0960   14.8810 O.2    73  ASN73      -0.2716
     61  ND2      -16.5630  -50.6410   16.5730 N.am   73  ASN73      -0.0877
     62  N        -16.0910  -48.0000   12.1140 N.am   74  MET74      -0.1977
     63  CA       -17.0840  -47.2280   11.4030 C.3    74  MET74       0.1605
     64  C        -17.2240  -47.7880   10.0100 C.2    74  MET74       0.2287
     65  O        -16.2760  -47.7760    9.2320 O.2    74  MET74      -0.2864
     66  CB       -16.6620  -45.7610   11.3570 C.3    74  MET74       0.0413
     67  CG       -17.7550  -44.7800   10.9240 C.3    74  MET74       0.0598
     68  SD       -17.1330  -43.0700   10.8000 S.3    74  MET74      -0.1393
     69  CE       -17.9220  -42.2910   12.2430 C.3    74  MET74       0.0692
     70  N        -13.5120  -48.0210    8.6860 N.3    90  ILE90      -0.1231
     71  CA       -12.3390  -47.6250    9.4320 C.3    90  ILE90       0.1692
     72  C        -12.3710  -48.5210   10.6530 C.2    90  ILE90       0.2593
     73  O        -13.2800  -48.4180   11.4590 O.2    90  ILE90      -0.2718
     74  CB       -12.4160  -46.1520    9.8650 C.3    90  ILE90       0.0266
     75  CG1      -12.7620  -45.2630    8.6640 C.3    90  ILE90       0.0019
     76  CG2      -11.0730  -45.7160   10.4290 C.3    90  ILE90       0.0020
     77  CD1      -12.8190  -43.7780    8.9940 C.3    90  ILE90       0.0001
     78  N        -11.4180  -49.4370   10.7610 N.am   91  THR91      -0.1939
     79  CA       -11.3610  -50.3400   11.9140 C.3    91  THR91       0.2028
     80  C         -9.9140  -50.5540   12.3010 C.2    91  THR91       0.2642
     81  O         -9.0440  -49.7760   11.9140 O.2    91  THR91      -0.2714
     82  CB       -11.9340  -51.7460   11.6150 C.3    91  THR91       0.1808
     83  OG1      -11.2680  -52.2920   10.4680 O.3    91  THR91      -0.2208
     84  CG2      -13.4350  -51.6980   11.3990 C.3    91  THR91       0.0379
     85  N         -9.6740  -51.6200   13.0640 N.am   92  SER92      -0.1949
     86  CA        -8.3310  -52.0070   13.5010 C.3    92  SER92       0.1924
     87  C         -8.2520  -53.5350   13.5680 C.2    92  SER92       0.2314
     88  O         -9.0910  -54.1740   14.1960 O.2    92  SER92      -0.2863
     89  CB        -8.0100  -51.4150   14.8710 C.3    92  SER92       0.2116
     90  OG        -6.6800  -51.7400   15.2300 O.3    92  SER92      -0.2180
     91  N         -0.1350  -49.6940   17.1150 N.3   116  GLU116     -0.1231
     92  CA        -1.5210  -49.4020   16.7940 C.3   116  GLU116      0.1699
     93  C         -1.7000  -49.5000   15.2950 C.2   116  GLU116      0.2593
     94  O         -0.8340  -49.0990   14.5180 O.2   116  GLU116     -0.2718
     95  CB        -1.9130  -47.9980   17.2600 C.3   116  GLU116      0.0402
     96  CG        -1.7490  -47.7460   18.7450 C.3   116  GLU116      0.1161
     97  CD        -1.1450  -46.3730   19.0220 C.2   116  GLU116      0.3649
     98  OE1       -1.8850  -45.3600   18.9320 O.co2 116  GLU116     -0.2457
     99  OE2        0.0780  -46.3090   19.3140 O.co2 116  GLU116     -0.2457
    100  N         -2.8380  -50.0400   14.8950 N.am  117  THR117     -0.1939
    101  CA        -3.1490  -50.1930   13.4940 C.3   117  THR117      0.2028
    102  C         -4.4690  -49.5300   13.1480 C.2   117  THR117      0.2642
    103  O         -5.4620  -49.6830   13.8590 O.2   117  THR117     -0.2714
    104  CB        -3.2330  -51.6710   13.1360 C.3   117  THR117      0.1808
    105  OG1       -1.9170  -52.1620   12.9070 O.3   117  THR117     -0.2208
    106  CG2       -4.0850  -51.8920   11.9020 C.3   117  THR117      0.0379
    107  N         -4.4720  -48.7710   12.0640 N.am  118  MET118     -0.1976
    108  CA        -5.6950  -48.1400   11.6100 C.3   118  MET118      0.1605
    109  C         -5.8880  -48.6370   10.2050 C.2   118  MET118      0.2287
    110  O         -5.0310  -48.4250    9.3400 O.2   118  MET118     -0.2864
    111  CB        -5.5740  -46.6310   11.5880 C.3   118  MET118      0.0413
    112  CG        -6.7380  -45.9780   10.9120 C.3   118  MET118      0.0598
    113  SD        -6.6750  -44.2050   11.0290 S.3   118  MET118     -0.1393
    114  CE        -8.1920  -43.9080   11.8770 C.3   118  MET118      0.0692
    115  N          1.6990  -47.2240   13.8730 N.3   144  ARG144     -0.1245
    116  CA         2.5040  -46.4140   14.7580 C.3   144  ARG144      0.1563
    117  C          3.1380  -47.4440   15.6940 C.2   144  ARG144      0.2260
    118  O          2.4480  -48.1230   16.4680 O.2   144  ARG144     -0.2867
    119  CB         1.6060  -45.4290   15.5240 C.3   144  ARG144      0.0307
    120  CG         0.6490  -44.6130   14.6280 C.3   144  ARG144      0.0489
    121  CD        -0.2470  -43.6540   15.4390 C.3   144  ARG144      0.2205
    122  NE        -1.6110  -44.1590   15.6390 N.pl3 144  ARG144     -0.0865
    123  CZ        -2.4640  -43.6820   16.5480 C.cat 144  ARG144      0.5346
    124  NH1       -2.1070  -42.6870   17.3520 N.pl3 144  ARG144      0.1354
    125  NH2       -3.6770  -44.2040   16.6590 N.pl3 144  ARG144      0.1354
    126  N        -24.0900  -48.4120   17.0060 N.3   356  PHE356     -0.1241
    127  CA       -25.4070  -47.9060   16.6320 C.3   356  PHE356      0.1605
    128  C        -25.3840  -48.0020   15.1070 C.2   356  PHE356      0.2264
    129  O        -24.3440  -47.7220   14.4930 O.2   356  PHE356     -0.2867
    130  CB       -25.5850  -46.4340   17.0650 C.3   356  PHE356      0.0534
    131  CG       -25.1930  -46.1630   18.5110 C.ar  356  PHE356     -0.0203
    132  CD1      -23.8460  -45.9830   18.8700 C.ar  356  PHE356     -0.0042
    133  CD2      -26.1670  -46.1030   19.5240 C.ar  356  PHE356     -0.0042
    134  CE1      -23.4690  -45.7490   20.2200 C.ar  356  PHE356     -0.0003
    135  CE2      -25.8110  -45.8700   20.8840 C.ar  356  PHE356     -0.0003
    136  CZ       -24.4600  -45.6920   21.2300 C.ar  356  PHE356     -0.0000
@<TRIPOS>BOND
     1     1     2    1
     2     5     2    1
     3     5     6    1
     4     2     3    1
     5     7     6   ar
     6     7     9   ar
     7    75    77    1
     8    75    74    1
     9    70    71    1
    10     6     8   ar
    11    65    64    2
    12     9    11   ar
    13   110   109    2
    14    71    74    1
    15    71    72    1
    16     3     4    2
    17    74    76    1
    18    64    63    1
    19   109   108    1
    20    83    82    1
    21     8    10   ar
    22    72    78   am
    23    72    73    2
    24    11    10   ar
    25    78    79    1
    26    68    67    1
    27    68    69    1
    28   112   113    1
    29   112   111    1
    30    67    66    1
    31   113   114    1
    32    66    63    1
    33    84    82    1
    34    63    62    1
    35   111   108    1
    36   108   107    1
    37    82    79    1
    38   106   104    1
    39    79    80    1
    40    81    80    2
    41   107   102   am
    42    62    56   am
    43    80    85   am
    44   105   104    1
    45    85    86    1
    46   104   101    1
    47   102   101    1
    48   102   103    2
    49    56    57    2
    50    56    55    1
    51   101   100    1
    52    86    87    1
    53    86    89    1
    54    12    13    1
    55    87    88    2
    56   115   116    1
    57    16    13    1
    58    55    58    1
    59    55    54    1
    60    13    14    1
    61    58    59    1
    62   129   128    2
    63    94    93    2
    64   120   121    1
    65   120   119    1
    66   116   119    1
    67   116   117    1
    68    89    90    1
    69    60    59    2
    70   100    93   am
    71   128   127    1
    72    93    92    1
    73    59    61   am
    74    54    49   am
    75   121   122    1
    76    50    49    2
    77   122   123    2
    78    14    15    2
    79    14    17   am
    80   117   118    2
    81    49    48    1
    82    17    18    1
    83   123   125    1
    84   123   124    1
    85    52    51    1
    86    52    53    1
    87   127   126    1
    88   127   130    1
    89    92    91    1
    90    92    95    1
    91    51    48    1
    92   130   131    1
    93    48    47    1
    94    95    96    1
    95    20    19    2
    96    18    19    1
    97    53    47    1
    98    45    44    1
    99    47    42   am
   100    19    21   am
   101   131   132   ar
   102   131   133   ar
   103    96    97    1
   104   132   134   ar
   105    42    43    2
   106    42    41    1
   107    98    97   ar
   108    97    99   ar
   109    21    22    1
   110    44    41    1
   111    44    46    1
   112   133   135   ar
   113    41    40    1
   114    22    25    1
   115    22    23    1
   116   134   136   ar
   117    23    24    2
   118   135   136   ar
   119    40    28   am
   120    29    28    2
   121    28    27    1
   122    38    36   ar
   123    38    39   ar
   124    36    33   ar
   125    27    30    1
   126    27    26    1
   127    39    37   ar
   128    30    31    1
   129    33    31   ar
   130    33    35   ar
   131    31    32   ar
   132    37    35   ar
   133    35    34   ar
   134    32    34   ar
