@<TRIPOS>MOLECULE
tmp/2r8aA02.pdb
 178 169 0 0 0
SMALL
GASTEIGER

@<TRIPOS>ATOM
      1  N        -13.7780  -26.4850   -3.3760 N.3     5  LEU5       -0.1245
      2  CA       -14.4230  -26.7440   -4.6580 C.3     5  LEU5        0.1561
      3  C        -13.5770  -27.6830   -5.5420 C.2     5  LEU5        0.2260
      4  O        -14.1010  -28.5450   -6.2530 O.2     5  LEU5       -0.2867
      5  CB       -14.6740  -25.4170   -5.3860 C.3     5  LEU5        0.0270
      6  CG       -15.3590  -25.4550   -6.7640 C.3     5  LEU5        0.0019
      7  CD1      -16.7990  -25.9090   -6.6280 C.3     5  LEU5        0.0001
      8  CD2      -15.3120  -24.0770   -7.3990 C.3     5  LEU5        0.0001
      9  N        -15.0750  -31.1030   -2.0900 N.3     9  TYR9       -0.1241
     10  CA       -15.5340  -30.9630   -0.7120 C.3     9  TYR9        0.1605
     11  C        -15.3960  -32.2590    0.0540 C.2     9  TYR9        0.2264
     12  O        -16.2630  -32.6220    0.8560 O.2     9  TYR9       -0.2867
     13  CB       -16.9860  -30.5030   -0.6890 C.3     9  TYR9        0.0534
     14  CG       -17.1680  -29.1550   -1.3220 C.ar    9  TYR9       -0.0201
     15  CD1      -18.1550  -28.9390   -2.2780 C.ar    9  TYR9       -0.0009
     16  CD2      -16.3430  -28.0940   -0.9770 C.ar    9  TYR9       -0.0009
     17  CE1      -18.3110  -27.6950   -2.8760 C.ar    9  TYR9        0.0417
     18  CE2      -16.4930  -26.8520   -1.5680 C.ar    9  TYR9        0.0417
     19  CZ       -17.4750  -26.6590   -2.5140 C.ar    9  TYR9        0.1957
     20  OH       -17.6130  -25.4260   -3.0990 O.3     9  TYR9       -0.2866
     21  N        -17.3340  -18.2480   -5.8430 N.3    42  VAL42      -0.1245
     22  CA       -17.5210  -19.3670   -6.7480 C.3    42  VAL42       0.1561
     23  C        -18.5390  -18.9010   -7.7500 C.2    42  VAL42       0.2260
     24  O        -19.6220  -18.4570   -7.3800 O.2    42  VAL42      -0.2867
     25  CB       -18.0670  -20.6120   -5.9920 C.3    42  VAL42       0.0252
     26  CG1      -18.7590  -21.5400   -6.9310 C.3    42  VAL42       0.0019
     27  CG2      -16.9210  -21.3440   -5.3020 C.3    42  VAL42       0.0019
     28  N        -21.0880  -19.8900  -10.4240 N.3    44  ILE44      -0.1245
     29  CA       -21.8630  -21.0950  -10.7410 C.3    44  ILE44       0.1561
     30  C        -22.6390  -20.9690  -12.0450 C.2    44  ILE44       0.2260
     31  O        -23.4790  -20.0860  -12.1900 O.2    44  ILE44      -0.2867
     32  CB       -22.8950  -21.4060   -9.6180 C.3    44  ILE44       0.0252
     33  CG1      -22.2150  -21.3350   -8.2380 C.3    44  ILE44       0.0019
     34  CG2      -23.5350  -22.7720   -9.8630 C.3    44  ILE44       0.0019
     35  CD1      -23.1440  -21.5730   -7.0560 C.3    44  ILE44       0.0001
     36  N        -25.0670  -23.2840  -14.4050 N.3    46  PRO46      -0.2116
     37  CA       -25.8520  -24.5020  -14.6460 C.3    46  PRO46       0.1372
     38  C        -26.3330  -24.6790  -16.0780 C.2    46  PRO46       0.2244
     39  O        -26.0620  -23.8600  -16.9630 O.2    46  PRO46      -0.2868
     40  CB       -27.0550  -24.3530  -13.7100 C.3    46  PRO46       0.0268
     41  CG       -26.7470  -23.1560  -12.8570 C.3    46  PRO46       0.0207
     42  CD       -25.8970  -22.2860  -13.7210 C.3    46  PRO46       0.0892
     43  N        -29.9030  -26.5620  -16.6880 N.3    48  VAL48      -0.1245
     44  CA       -31.0790  -27.3820  -16.4330 C.3    48  VAL48       0.1561
     45  C        -31.9750  -27.2530  -17.6580 C.2    48  VAL48       0.2260
     46  O        -32.1550  -26.1580  -18.1980 O.2    48  VAL48      -0.2867
     47  CB       -31.8410  -26.9180  -15.1600 C.3    48  VAL48       0.0252
     48  CG1      -33.0890  -27.7530  -14.9550 C.3    48  VAL48       0.0019
     49  CG2      -30.9430  -27.0440  -13.9480 C.3    48  VAL48       0.0019
     50  N        -32.0710  -22.5960  -15.1460 N.3    66  ALA66      -0.1231
     51  CA       -31.2540  -22.2900  -13.9850 C.3    66  ALA66       0.1679
     52  C        -30.2160  -21.2580  -14.3880 C.2    66  ALA66       0.2434
     53  O        -29.3340  -21.5360  -15.2030 O.2    66  ALA66      -0.2733
     54  CB       -30.5790  -23.5380  -13.4940 C.3    66  ALA66       0.0304
     55  N        -30.3070  -20.0500  -13.8130 N.am   67  PRO67      -0.2729
     56  CA       -29.4330  -18.8890  -14.0390 C.3    67  PRO67       0.1401
     57  C        -28.0090  -19.0500  -13.5200 C.2    67  PRO67       0.2269
     58  O        -27.7090  -19.9880  -12.7920 O.2    67  PRO67      -0.2865
     59  CB       -30.1500  -17.7640  -13.2970 C.3    67  PRO67       0.0296
     60  CG       -31.5520  -18.2690  -13.1070 C.3    67  PRO67       0.0237
     61  CD       -31.3710  -19.7180  -12.8570 C.3    67  PRO67       0.0939
     62  N        -24.7570  -17.7530  -11.2480 N.3    69  ALA69      -0.1245
     63  CA       -24.7230  -17.2350   -9.8920 C.3    69  ALA69       0.1562
     64  C        -23.3040  -17.0290   -9.4380 C.2    69  ALA69       0.2260
     65  O        -22.3900  -17.7580   -9.8350 O.2    69  ALA69      -0.2867
     66  CB       -25.4240  -18.1900   -8.9420 C.3    69  ALA69       0.0290
     67  N        -21.1840  -16.6690   -5.9330 N.3    71  VAL71      -0.1245
     68  CA       -21.2700  -16.9010   -4.4920 C.3    71  VAL71       0.1561
     69  C        -19.9710  -16.5580   -3.7790 C.2    71  VAL71       0.2260
     70  O        -18.9190  -17.1770   -3.9990 O.2    71  VAL71      -0.2867
     71  CB       -21.6030  -18.3580   -4.1380 C.3    71  VAL71       0.0252
     72  CG1      -22.0660  -18.4240   -2.6920 C.3    71  VAL71       0.0019
     73  CG2      -22.6480  -18.9060   -5.0850 C.3    71  VAL71       0.0019
     74  N        -22.7170  -19.2360    2.0670 N.3    92  SER92      -0.1202
     75  CA       -24.0610  -19.6210    1.6320 C.3    92  SER92       0.2020
     76  C        -24.1370  -21.1460    1.5690 C.2    92  SER92       0.2619
     77  O        -23.2880  -21.7840    0.9510 O.2    92  SER92      -0.2717
     78  CB       -24.3780  -19.0310    0.2630 C.3    92  SER92       0.2103
     79  OG       -25.7080  -19.3570   -0.0960 O.3    92  SER92      -0.2182
     80  N        -25.1490  -21.7330    2.2010 N.am   93  ASN93      -0.1960
     81  CA       -25.2630  -23.1900    2.2220 C.3    93  ASN93       0.1819
     82  C        -26.4220  -23.7650    1.4210 C.2    93  ASN93       0.2621
     83  O        -26.4310  -24.9620    1.1070 O.2    93  ASN93      -0.2715
     84  CB       -25.3470  -23.6720    3.6690 C.3    93  ASN93       0.1195
     85  CG       -24.2340  -23.1190    4.5160 C.2    93  ASN93       0.2630
     86  OD1      -23.0600  -23.2330    4.1600 O.2    93  ASN93      -0.2716
     87  ND2      -24.5890  -22.5060    5.6400 N.am   93  ASN93      -0.0877
     88  N        -27.4020  -22.9200    1.1120 N.am   94  TYR94      -0.1960
     89  CA       -28.5570  -23.3410    0.3370 C.3    94  TYR94       0.1771
     90  C        -28.9120  -22.2510   -0.6330 C.2    94  TYR94       0.2620
     91  O        -28.5710  -21.0900   -0.4290 O.2    94  TYR94      -0.2715
     92  CB       -29.7520  -23.6390    1.2370 C.3    94  TYR94       0.0574
     93  CG       -29.5020  -24.7840    2.1920 C.ar   94  TYR94      -0.0198
     94  CD1      -28.6260  -24.6410    3.2760 C.ar   94  TYR94      -0.0009
     95  CD2      -30.1220  -26.0230    2.0070 C.ar   94  TYR94      -0.0009
     96  CE1      -28.3710  -25.7000    4.1500 C.ar   94  TYR94       0.0417
     97  CE2      -29.8740  -27.0920    2.8790 C.ar   94  TYR94       0.0417
     98  CZ       -28.9980  -26.9190    3.9480 C.ar   94  TYR94       0.1957
     99  OH       -28.7600  -27.9540    4.8220 O.3    94  TYR94      -0.2866
    100  N        -29.5930  -22.6440   -1.6990 N.am   95  GLY95      -0.1940
    101  CA       -29.9920  -21.7080   -2.7310 C.3    95  GLY95       0.2014
    102  C        -30.8090  -22.4470   -3.7650 C.2    95  GLY95       0.2639
    103  O        -31.1020  -23.6300   -3.5940 O.2    95  GLY95      -0.2714
    104  N        -31.1680  -21.7730   -4.8480 N.am   96  LEU96      -0.1963
    105  CA       -31.9780  -22.4100   -5.8690 C.3    96  LEU96       0.1728
    106  C        -32.5500  -21.3710   -6.8160 C.2    96  LEU96       0.2616
    107  O        -33.2360  -20.4500   -6.3900 O.2    96  LEU96      -0.2715
    108  CB       -33.0990  -23.1940   -5.1920 C.3    96  LEU96       0.0311
    109  CG       -34.4640  -23.2770   -5.8520 C.3    96  LEU96       0.0022
    110  CD1      -34.3450  -23.9120   -7.2260 C.3    96  LEU96       0.0001
    111  CD2      -35.3910  -24.0760   -4.9320 C.3    96  LEU96       0.0001
    112  N        -32.2620  -21.5290   -8.1020 N.am   97  ALA97      -0.1977
    113  CA       -32.7360  -20.6010   -9.1180 C.3    97  ALA97       0.1597
    114  C        -33.3410  -21.3640  -10.2800 C.2    97  ALA97       0.2287
    115  O        -32.7020  -22.2300  -10.8670 O.2    97  ALA97      -0.2864
    116  CB       -31.5920  -19.7430   -9.6090 C.3    97  ALA97       0.0319
    117  N        -34.7020  -28.0980   -9.1440 N.3   301  PRO301     -0.2116
    118  CA       -33.7050  -29.0060   -9.7150 C.3   301  PRO301      0.1372
    119  C        -32.7460  -29.6290   -8.7100 C.2   301  PRO301      0.2244
    120  O        -31.9910  -28.9400   -8.0170 O.2   301  PRO301     -0.2868
    121  CB       -32.9880  -28.1350  -10.7500 C.3   301  PRO301      0.0268
    122  CG       -33.1250  -26.7430  -10.1740 C.3   301  PRO301      0.0207
    123  CD       -34.5640  -26.7450   -9.7130 C.3   301  PRO301      0.0892
    124  N        -26.5520  -36.5540   -8.3300 N.3   305  ARG305     -0.1245
    125  CA       -25.5280  -35.8660   -9.0950 C.3   305  ARG305      0.1563
    126  C        -24.1440  -36.3280   -8.6830 C.2   305  ARG305      0.2260
    127  O        -23.9390  -36.7390   -7.5400 O.2   305  ARG305     -0.2867
    128  CB       -25.6660  -34.3660   -8.8380 C.3   305  ARG305      0.0307
    129  CG       -26.4360  -34.0880   -7.5490 C.3   305  ARG305      0.0489
    130  CD       -26.3340  -32.6680   -7.0670 C.3   305  ARG305      0.2205
    131  NE       -27.4910  -31.8720   -7.4510 N.pl3 305  ARG305     -0.0865
    132  CZ       -27.7510  -30.6710   -6.9450 C.cat 305  ARG305      0.5346
    133  NH1      -26.9240  -30.1520   -6.0340 N.pl3 305  ARG305      0.1354
    134  NH2      -28.8250  -29.9880   -7.3480 N.pl3 305  ARG305      0.1354
    135  N        -19.7290  -35.4910   -8.9660 N.3   307  TRP307     -0.1241
    136  CA       -18.8280  -34.3520   -9.0200 C.3   307  TRP307      0.1605
    137  C        -17.4060  -34.7240   -9.4190 C.2   307  TRP307      0.2264
    138  O        -16.8430  -35.6850   -8.9020 O.2   307  TRP307     -0.2867
    139  CB       -18.7200  -33.6800   -7.6530 C.3   307  TRP307      0.0550
    140  CG       -19.9200  -32.9960   -7.0770 C.ar  307  TRP307      0.0003
    141  CD1      -21.1810  -33.4990   -6.9490 C.ar  307  TRP307      0.0946
    142  CD2      -19.9200  -31.7390   -6.3860 C.ar  307  TRP307      0.0152
    143  NE1      -21.9640  -32.6420   -6.2120 N.ar  307  TRP307     -0.2442
    144  CE2      -21.2120  -31.5530   -5.8530 C.ar  307  TRP307      0.0810
    145  CE3      -18.9460  -30.7550   -6.1600 C.ar  307  TRP307      0.0012
    146  CZ2      -21.5560  -30.4220   -5.1040 C.ar  307  TRP307      0.0191
    147  CZ3      -19.2860  -29.6340   -5.4200 C.ar  307  TRP307      0.0001
    148  CH2      -20.5800  -29.4770   -4.9000 C.ar  307  TRP307      0.0015
    149  N        -20.4250  -30.7620  -12.4550 N.3   329  MET329     -0.1245
    150  CA       -21.4430  -31.6540  -11.8980 C.3   329  MET329      0.1570
    151  C        -22.2830  -32.1810  -13.0450 C.2   329  MET329      0.2261
    152  O        -22.8060  -31.3940  -13.8300 O.2   329  MET329     -0.2867
    153  CB       -22.3930  -30.9160  -10.9510 C.3   329  MET329      0.0387
    154  CG       -21.7650  -30.3340   -9.7020 C.3   329  MET329      0.0595
    155  SD       -22.9600  -29.4380   -8.6400 S.3   329  MET329     -0.1393
    156  CE       -21.8720  -28.3040   -7.9050 C.3   329  MET329      0.0692
    157  N        -26.4150  -30.4820  -16.1750 N.3   348  LYS348     -0.1231
    158  CA       -25.0390  -30.6240  -15.7370 C.3   348  LYS348      0.1693
    159  C        -24.7080  -29.2340  -15.2060 C.2   348  LYS348      0.2591
    160  O        -25.6110  -28.4150  -15.0350 O.2   348  LYS348     -0.2718
    161  CB       -24.1410  -31.0110  -16.9170 C.3   348  LYS348      0.0285
    162  CG       -24.1240  -30.0130  -18.0650 C.3   348  LYS348      0.0035
    163  CD       -23.4020  -30.5550  -19.3090 C.3   348  LYS348      0.0206
    164  CE       -24.2170  -31.6500  -19.9910 C.3   348  LYS348      0.1093
    165  NZ       -25.5390  -31.1350  -20.4590 N.3   348  LYS348     -0.1314
    166  N        -23.4410  -28.9590  -14.9240 N.am  349  ALA349     -0.1980
    167  CA       -23.0690  -27.6370  -14.4260 C.3   349  ALA349      0.1597
    168  C        -21.5560  -27.4520  -14.2500 C.2   349  ALA349      0.2287
    169  O        -20.8150  -28.4150  -14.0410 O.2   349  ALA349     -0.2864
    170  CB       -23.7970  -27.3550  -13.1020 C.3   349  ALA349      0.0319
    171  N        -18.4410  -25.1440  -12.2440 N.3   351  LEU351     -0.1245
    172  CA       -18.1120  -24.2770  -11.1220 C.3   351  LEU351      0.1561
    173  C        -16.6860  -23.7460  -11.2320 C.2   351  LEU351      0.2260
    174  O        -15.7490  -24.5170  -11.4340 O.2   351  LEU351     -0.2867
    175  CB       -18.2330  -25.0370   -9.8010 C.3   351  LEU351      0.0270
    176  CG       -19.5790  -25.5410   -9.2840 C.3   351  LEU351      0.0019
    177  CD1      -20.4240  -24.3690   -8.8700 C.3   351  LEU351      0.0001
    178  CD2      -20.2830  -26.3720  -10.3440 C.3   351  LEU351      0.0001
@<TRIPOS>BOND
     1   165   164    1
     2   164   163    1
     3   163   162    1
     4    46    45    2
     5   162   161    1
     6    45    44    1
     7    39    38    2
     8   161   158    1
     9    43    44    1
    10    44    47    1
    11   157   158    1
    12    38    37    1
    13   158   159    1
    14   159   160    2
    15   159   166   am
    16    53    52    2
    17    47    48    1
    18    47    49    1
    19    50    51    1
    20   166   167    1
    21    37    36    1
    22    37    40    1
    23   167   168    1
    24   167   170    1
    25    36    42    1
    26    52    51    1
    27    52    55   am
    28   168   169    2
    29    56    55    1
    30    56    57    1
    31    56    59    1
    32    51    54    1
    33   152   151    2
    34    55    61    1
    35    42    41    1
    36    40    41    1
    37    57    58    2
    38    59    60    1
    39    60    61    1
    40   151   150    1
    41   149   150    1
    42   171   172    1
    43    31    30    2
    44    30    29    1
    45   150   153    1
    46   174   173    2
    47    62    63    1
    48   173   172    1
    49   172   175    1
    50   153   154    1
    51   115   114    2
    52   121   122    1
    53   121   118    1
    54    29    28    1
    55    29    32    1
    56   178   176    1
    57   114   113    1
    58   122   123    1
    59    63    64    1
    60    63    66    1
    61    34    32    1
    62    65    64    2
    63   175   176    1
    64   118   117    1
    65   118   119    1
    66   123   117    1
    67   154   155    1
    68    32    33    1
    69   116   113    1
    70   137   136    1
    71   137   138    2
    72   176   177    1
    73   113   112    1
    74   125   128    1
    75   125   126    1
    76   125   124    1
    77   136   135    1
    78   136   139    1
    79   128   129    1
    80   119   120    2
    81   126   127    2
    82   155   156    1
    83    33    35    1
    84   112   106   am
    85    23    24    2
    86    23    22    1
    87   139   140    1
    88   129   130    1
    89   131   130    1
    90   131   132    2
    91     8     6    1
    92   134   132    1
    93   110   109    1
    94   140   141   ar
    95   140   142   ar
    96   141   143   ar
    97   132   133    1
    98    26    25    1
    99   106   107    2
   100   106   105    1
   101     6     7    1
   102     6     5    1
   103    22    25    1
   104    22    21    1
   105   142   145   ar
   106   142   144   ar
   107     4     3    2
   108   143   144   ar
   109   145   147   ar
   110    25    27    1
   111    67    68    1
   112   105   108    1
   113   105   104    1
   114   144   146   ar
   115   109   108    1
   116   109   111    1
   117     3     2    1
   118   147   148   ar
   119     5     2    1
   120   146   148   ar
   121    73    71    1
   122   104   102   am
   123     2     1    1
   124    68    71    1
   125    68    69    1
   126    71    72    1
   127    70    69    2
   128   102   103    2
   129   102   101    1
   130    20    19    1
   131    17    19   ar
   132    17    15   ar
   133   101   100    1
   134    19    18   ar
   135    15    14   ar
   136     9    10    1
   137   100    90   am
   138    18    16   ar
   139    14    16   ar
   140    14    13    1
   141    10    13    1
   142    10    11    1
   143    90    91    2
   144    90    89    1
   145    79    78    1
   146    11    12    2
   147    78    75    1
   148    89    88    1
   149    89    92    1
   150    77    76    2
   151    83    82    2
   152    88    82   am
   153    92    93    1
   154    82    81    1
   155    76    75    1
   156    76    80   am
   157    75    74    1
   158    95    93   ar
   159    95    97   ar
   160    93    94   ar
   161    80    81    1
   162    81    84    1
   163    97    98   ar
   164    94    96   ar
   165    84    85    1
   166    98    96   ar
   167    98    99    1
   168    86    85    2
   169    85    87   am
