@<TRIPOS>MOLECULE
tmp/2r8aB00.pdb
 103 100 0 0 0
SMALL
GASTEIGER

@<TRIPOS>ATOM
      1  N        -25.3060  -47.6070    7.7370 N.3    37  PHE37      -0.1241
      2  CA       -24.1380  -47.0570    8.3790 C.3    37  PHE37       0.1605
      3  C        -24.0820  -47.5580    9.8070 C.2    37  PHE37       0.2264
      4  O        -25.1210  -47.7350   10.4500 O.2    37  PHE37      -0.2867
      5  CB       -24.2350  -45.5450    8.3570 C.3    37  PHE37       0.0534
      6  CG       -23.1840  -44.8590    9.1630 C.ar   37  PHE37      -0.0203
      7  CD1      -21.9910  -44.4580    8.5730 C.ar   37  PHE37      -0.0042
      8  CD2      -23.4060  -44.5720   10.5170 C.ar   37  PHE37      -0.0042
      9  CE1      -21.0370  -43.7720    9.3190 C.ar   37  PHE37      -0.0003
     10  CE2      -22.4630  -43.8930   11.2630 C.ar   37  PHE37      -0.0003
     11  CZ       -21.2770  -43.4890   10.6680 C.ar   37  PHE37      -0.0000
     12  N        -16.0910  -48.0000   12.1140 N.3    74  MET74      -0.1245
     13  CA       -17.0840  -47.2280   11.4030 C.3    74  MET74       0.1570
     14  C        -17.2240  -47.7880   10.0100 C.2    74  MET74       0.2261
     15  O        -16.2760  -47.7760    9.2320 O.2    74  MET74      -0.2867
     16  CB       -16.6620  -45.7610   11.3570 C.3    74  MET74       0.0387
     17  CG       -17.7550  -44.7800   10.9240 C.3    74  MET74       0.0595
     18  SD       -17.1330  -43.0700   10.8000 S.3    74  MET74      -0.1393
     19  CE       -17.9220  -42.2910   12.2430 C.3    74  MET74       0.0692
     20  N        -19.7280  -48.0590    6.3970 N.3    76  PHE76      -0.1241
     21  CA       -20.7690  -47.5230    5.5440 C.3    76  PHE76       0.1605
     22  C        -20.8760  -48.4440    4.3350 C.2    76  PHE76       0.2264
     23  O        -19.8570  -48.8270    3.7410 O.2    76  PHE76      -0.2867
     24  CB       -20.4590  -46.1030    5.0710 C.3    76  PHE76       0.0534
     25  CG       -21.5330  -45.5280    4.1770 C.ar   76  PHE76      -0.0203
     26  CD1      -22.7790  -45.1990    4.6980 C.ar   76  PHE76      -0.0042
     27  CD2      -21.3040  -45.3510    2.8040 C.ar   76  PHE76      -0.0042
     28  CE1      -23.7730  -44.7070    3.8820 C.ar   76  PHE76      -0.0003
     29  CE2      -22.2890  -44.8620    1.9790 C.ar   76  PHE76      -0.0003
     30  CZ       -23.5310  -44.5380    2.5200 C.ar   76  PHE76      -0.0000
     31  N        -21.0810  -50.7960   -3.0040 N.3    86  TRP86      -0.1241
     32  CA       -19.7340  -50.4250   -2.5690 C.3    86  TRP86       0.1605
     33  C        -19.7660  -50.1260   -1.0630 C.2    86  TRP86       0.2264
     34  O        -20.8360  -50.0560   -0.4480 O.2    86  TRP86      -0.2867
     35  CB       -19.2550  -49.1750   -3.3100 C.3    86  TRP86       0.0550
     36  CG       -19.8830  -47.9630   -2.7470 C.ar   86  TRP86       0.0003
     37  CD1      -21.1970  -47.6100   -2.8450 C.ar   86  TRP86       0.0946
     38  CD2      -19.2860  -47.0450   -1.8200 C.ar   86  TRP86       0.0152
     39  NE1      -21.4640  -46.5410   -2.0270 N.ar   86  TRP86      -0.2442
     40  CE2      -20.3090  -46.1720   -1.3840 C.ar   86  TRP86       0.0810
     41  CE3      -17.9880  -46.8800   -1.3080 C.ar   86  TRP86       0.0012
     42  CZ2      -20.0740  -45.1460   -0.4540 C.ar   86  TRP86       0.0191
     43  CZ3      -17.7560  -45.8620   -0.3890 C.ar   86  TRP86       0.0001
     44  CH2      -18.7970  -45.0100    0.0270 C.ar   86  TRP86       0.0015
     45  N        -17.2020  -48.6210    2.6440 N.3    88  ALA88      -0.1231
     46  CA       -15.9450  -48.2500    3.2640 C.3    88  ALA88       0.1694
     47  C        -16.0120  -48.4500    4.7580 C.2    88  ALA88       0.2593
     48  O        -17.0910  -48.5260    5.3540 O.2    88  ALA88      -0.2718
     49  CB       -15.6030  -46.8160    2.9500 C.3    88  ALA88       0.0304
     50  N        -14.8430  -48.5310    5.3680 N.am   89  SER89      -0.1938
     51  CA       -14.7780  -48.7210    6.8000 C.3    89  SER89       0.2055
     52  C        -13.4740  -48.2530    7.3830 C.2    89  SER89       0.2642
     53  O        -12.4670  -48.1160    6.6890 O.2    89  SER89      -0.2714
     54  CB       -14.9330  -50.1940    7.1400 C.3    89  SER89       0.2130
     55  OG       -13.8720  -50.9350    6.5580 O.3    89  SER89      -0.2179
     56  N        -13.5120  -48.0210    8.6860 N.am   90  ILE90      -0.1977
     57  CA       -12.3390  -47.6250    9.4320 C.3    90  ILE90       0.1596
     58  C        -12.3710  -48.5210   10.6530 C.2    90  ILE90       0.2287
     59  O        -13.2800  -48.4180   11.4590 O.2    90  ILE90      -0.2864
     60  CB       -12.4160  -46.1520    9.8650 C.3    90  ILE90       0.0276
     61  CG1      -12.7620  -45.2630    8.6640 C.3    90  ILE90       0.0022
     62  CG2      -11.0730  -45.7160   10.4290 C.3    90  ILE90       0.0022
     63  CD1      -12.8190  -43.7780    8.9940 C.3    90  ILE90       0.0001
     64  N         -8.0020  -48.5090    6.8120 N.3   120  LEU120     -0.1231
     65  CA        -8.9330  -47.7440    6.0140 C.3   120  LEU120      0.1693
     66  C         -9.3420  -48.6610    4.8860 C.2   120  LEU120      0.2592
     67  O         -8.5060  -49.0440    4.0760 O.2   120  LEU120     -0.2718
     68  CB        -8.2510  -46.4940    5.4540 C.3   120  LEU120      0.0284
     69  CG        -7.9310  -45.4140    6.4910 C.3   120  LEU120      0.0019
     70  CD1       -7.2100  -44.2900    5.7820 C.3   120  LEU120      0.0001
     71  CD2       -9.2130  -44.9100    7.1840 C.3   120  LEU120      0.0001
     72  N        -10.6120  -49.0480    4.8470 N.am  121  ASN121     -0.1960
     73  CA       -11.0510  -49.9150    3.7740 C.3   121  ASN121      0.1819
     74  C        -12.1620  -49.4070    2.8620 C.2   121  ASN121      0.2621
     75  O        -13.1850  -48.8560    3.3020 O.2   121  ASN121     -0.2715
     76  CB       -11.4790  -51.2710    4.2920 C.3   121  ASN121      0.1195
     77  CG       -12.1480  -52.0840    3.2140 C.2   121  ASN121      0.2630
     78  OD1      -11.4860  -52.6510    2.3510 O.2   121  ASN121     -0.2716
     79  ND2      -13.4760  -52.1050    3.2320 N.am  121  ASN121     -0.0877
     80  N        -11.9390  -49.6450    1.5730 N.am  122  LEU122     -0.1977
     81  CA       -12.8690  -49.2670    0.5210 C.3   122  LEU122      0.1596
     82  C        -12.9310  -50.4880   -0.3620 C.2   122  LEU122      0.2287
     83  O        -11.9140  -51.1140   -0.6530 O.2   122  LEU122     -0.2864
     84  CB       -12.3230  -48.0830   -0.2750 C.3   122  LEU122      0.0297
     85  CG       -13.1740  -47.3600   -1.3190 C.3   122  LEU122      0.0022
     86  CD1      -12.3340  -46.2440   -1.9130 C.3   122  LEU122      0.0001
     87  CD2      -13.6160  -48.3100   -2.4010 C.3   122  LEU122      0.0001
     88  N         -9.5250  -52.8040   -1.1710 N.3   138  PHE138     -0.1241
     89  CA        -8.2240  -52.1510   -1.0630 C.3   138  PHE138      0.1605
     90  C         -8.1020  -51.6770    0.3770 C.2   138  PHE138      0.2264
     91  O         -9.1000  -51.2430    0.9760 O.2   138  PHE138     -0.2867
     92  CB        -8.1640  -50.9400   -1.9970 C.3   138  PHE138      0.0534
     93  CG        -6.9740  -50.0140   -1.7530 C.ar  138  PHE138     -0.0203
     94  CD1       -5.7120  -50.2900   -2.3110 C.ar  138  PHE138     -0.0042
     95  CD2       -7.1220  -48.8430   -0.9950 C.ar  138  PHE138     -0.0042
     96  CE1       -4.6160  -49.4070   -2.1220 C.ar  138  PHE138     -0.0003
     97  CE2       -6.0390  -47.9630   -0.8030 C.ar  138  PHE138     -0.0003
     98  CZ        -4.7860  -48.2500   -1.3710 C.ar  138  PHE138     -0.0000
     99  N         -5.7120  -49.4340    3.4700 N.3   140  ALA140     -0.1245
    100  CA        -4.7160  -48.4570    3.8470 C.3   140  ALA140      0.1562
    101  C         -4.4750  -48.7370    5.3050 C.2   140  ALA140      0.2260
    102  O         -5.4280  -48.7040    6.0960 O.2   140  ALA140     -0.2867
    103  CB        -5.2770  -47.0710    3.6900 C.3   140  ALA140      0.0290
@<TRIPOS>BOND
     1    35    36    1
     2    35    32    1
     3    31    32    1
     4    37    36   ar
     5    37    39   ar
     6    36    38   ar
     7    32    33    1
     8    87    85    1
     9    94    96   ar
    10    94    93   ar
    11    96    98   ar
    12    39    40   ar
    13    92    93    1
    14    92    89    1
    15    86    85    1
    16    38    40   ar
    17    38    41   ar
    18    93    95   ar
    19    40    42   ar
    20    98    97   ar
    21    85    84    1
    22    41    43   ar
    23    88    89    1
    24    33    34    2
    25    89    90    1
    26    95    97   ar
    27    83    82    2
    28    42    44   ar
    29    43    44   ar
    30    82    81    1
    31    84    81    1
    32    90    91    2
    33    81    80    1
    34    80    74   am
    35    29    30   ar
    36    29    27   ar
    37    78    77    2
    38    30    28   ar
    39    45    46    1
    40    27    25   ar
    41    74    75    2
    42    74    73    1
    43    49    46    1
    44    77    79   am
    45    77    76    1
    46    46    47    1
    47    99   100    1
    48   103   100    1
    49    23    22    2
    50    73    76    1
    51    73    72    1
    52   100   101    1
    53    28    26   ar
    54    67    66    2
    55    25    26   ar
    56    25    24    1
    57    22    21    1
    58    47    48    2
    59    47    50   am
    60    72    66   am
    61    66    65    1
    62    24    21    1
    63   101   102    2
    64    50    51    1
    65    68    65    1
    66    68    69    1
    67    21    20    1
    68    70    69    1
    69    65    64    1
    70    69    71    1
    71    55    54    1
    72    53    52    2
    73    51    54    1
    74    51    52    1
    75    52    56   am
    76     1     2    1
    77     5     2    1
    78     5     6    1
    79     2     3    1
    80     7     6   ar
    81     7     9   ar
    82    61    63    1
    83    61    60    1
    84    56    57    1
    85     6     8   ar
    86    15    14    2
    87     9    11   ar
    88    57    60    1
    89    57    58    1
    90     3     4    2
    91    60    62    1
    92    14    13    1
    93     8    10   ar
    94    58    59    2
    95    11    10   ar
    96    18    17    1
    97    18    19    1
    98    17    16    1
    99    16    13    1
   100    13    12    1
