@<TRIPOS>MOLECULE
tmp/2r8fA00.pdb
 150 139 0 0 0
SMALL
GASTEIGER

@<TRIPOS>ATOM
      1  N        -22.2870   57.6000    8.0160 N.3    67  ARG67      -0.1245
      2  CA       -21.3320   56.6730    8.5910 C.3    67  ARG67       0.1563
      3  C        -21.4500   56.6340   10.1150 C.2    67  ARG67       0.2260
      4  O        -20.6720   55.9590   10.7880 O.2    67  ARG67      -0.2867
      5  CB       -19.9200   57.0990    8.1560 C.3    67  ARG67       0.0307
      6  CG       -18.8120   56.0900    8.4210 C.3    67  ARG67       0.0489
      7  CD       -17.8180   56.0140    7.2510 C.3    67  ARG67       0.2205
      8  NE       -18.4050   55.3980    6.0550 N.pl3  67  ARG67      -0.0865
      9  CZ       -17.7310   55.1170    4.9390 C.cat  67  ARG67       0.5346
     10  NH1      -16.4340   55.3940    4.8520 N.pl3  67  ARG67       0.1354
     11  NH2      -18.3530   54.5600    3.9050 N.pl3  67  ARG67       0.1354
     12  N        -19.8470   48.0950   20.6740 N.3   106  SER106     -0.1217
     13  CA       -20.6330   47.8160   19.4790 C.3   106  SER106      0.1889
     14  C        -22.0840   48.2530   19.6680 C.2   106  SER106      0.2288
     15  O        -22.7970   47.7380   20.5320 O.2   106  SER106     -0.2866
     16  CB       -20.5880   46.3230   19.1420 C.3   106  SER106      0.2089
     17  OG       -21.5180   46.0010   18.1220 O.3   106  SER106     -0.2183
     18  N        -24.5850   47.8830   17.4740 N.3   108  ARG108     -0.1231
     19  CA       -25.5020   46.8360   17.0590 C.3   108  ARG108      0.1694
     20  C        -25.7150   45.8340   18.1780 C.2   108  ARG108      0.2592
     21  O        -26.8220   45.3190   18.3460 O.2   108  ARG108     -0.2718
     22  CB       -24.9990   46.1310   15.7970 C.3   108  ARG108      0.0321
     23  CG       -24.9270   47.0580   14.6080 C.3   108  ARG108      0.0489
     24  CD       -24.4790   46.3620   13.3510 C.3   108  ARG108      0.2205
     25  NE       -23.8830   47.3240   12.4300 N.pl3 108  ARG108     -0.0865
     26  CZ       -22.6370   47.7840   12.5300 C.cat 108  ARG108      0.5346
     27  NH1      -21.8460   47.3610   13.5110 N.pl3 108  ARG108      0.1354
     28  NH2      -22.1890   48.6840   11.6600 N.pl3 108  ARG108      0.1354
     29  N        -24.6650   45.5710   18.9520 N.am  109  HIS109     -0.1976
     30  CA       -24.7540   44.6370   20.0740 C.3   109  HIS109      0.1656
     31  C        -25.6730   45.1970   21.1830 C.2   109  HIS109      0.2291
     32  O        -26.4150   44.4550   21.8280 O.2   109  HIS109     -0.2864
     33  CB       -23.3490   44.3700   20.6350 C.3   109  HIS109      0.0771
     34  CG       -23.2600   43.1770   21.5410 C.ar  109  HIS109      0.0820
     35  ND1      -24.0440   43.0280   22.6660 N.ar  109  HIS109     -0.2267
     36  CD2      -22.4480   42.0950   21.5060 C.ar  109  HIS109      0.1154
     37  CE1      -23.7190   41.9090   23.2860 C.ar  109  HIS109      0.1986
     38  NE2      -22.7530   41.3230   22.6030 N.ar  109  HIS109     -0.2212
     39  N        -19.5380   35.8600   26.6730 N.3   146  GLU146     -0.1245
     40  CA       -20.8950   35.8170   26.1670 C.3   146  GLU146      0.1567
     41  C        -21.2740   34.3880   25.8100 C.2   146  GLU146      0.2260
     42  O        -20.5740   33.7180   25.0550 O.2   146  GLU146     -0.2867
     43  CB       -21.0210   36.6950   24.9240 C.3   146  GLU146      0.0388
     44  CG       -22.4460   36.8520   24.4200 C.3   146  GLU146      0.1160
     45  CD       -22.5300   37.5670   23.0810 C.2   146  GLU146      0.3649
     46  OE1      -21.6670   38.4300   22.8060 O.co2 146  GLU146     -0.2457
     47  OE2      -23.4690   37.2790   22.3100 O.co2 146  GLU146     -0.2457
     48  N        -26.2440   38.5010   22.3530 N.3   152  GLU152     -0.1245
     49  CA       -26.8790   39.7170   21.8680 C.3   152  GLU152      0.1567
     50  C        -28.2240   39.3810   21.2320 C.2   152  GLU152      0.2260
     51  O        -29.0300   40.2660   20.9660 O.2   152  GLU152     -0.2867
     52  CB       -25.9810   40.4220   20.8590 C.3   152  GLU152      0.0388
     53  CG       -25.6580   39.6060   19.6370 C.3   152  GLU152      0.1160
     54  CD       -24.7810   40.3580   18.6670 C.2   152  GLU152      0.3649
     55  OE1      -25.2130   41.4180   18.1680 O.co2 152  GLU152     -0.2457
     56  OE2      -23.6580   39.8920   18.4050 O.co2 152  GLU152     -0.2457
     57  N        -29.1000   42.8280   11.9560 N.3   170  TYR170     -0.1241
     58  CA       -28.5660   44.1770   11.8010 C.3   170  TYR170      0.1605
     59  C        -29.2610   45.0230   10.7190 C.2   170  TYR170      0.2264
     60  O        -29.4010   46.2470   10.8800 O.2   170  TYR170     -0.2867
     61  CB       -27.0650   44.1090   11.5000 C.3   170  TYR170      0.0534
     62  CG       -26.2210   43.5290   12.6070 C.ar  170  TYR170     -0.0201
     63  CD1      -24.9890   42.9360   12.3260 C.ar  170  TYR170     -0.0009
     64  CD2      -26.6480   43.5710   13.9350 C.ar  170  TYR170     -0.0009
     65  CE1      -24.2040   42.3920   13.3380 C.ar  170  TYR170      0.0417
     66  CE2      -25.8700   43.0360   14.9550 C.ar  170  TYR170      0.0417
     67  CZ       -24.6490   42.4460   14.6510 C.ar  170  TYR170      0.1957
     68  OH       -23.8780   41.9170   15.6610 O.3   170  TYR170     -0.2866
     69  N        -28.1700   51.8860   14.3430 N.3   176  MET176     -0.1245
     70  CA       -27.0950   51.8960   13.3630 C.3   176  MET176      0.1570
     71  C        -27.0700   50.6120   12.5810 C.2   176  MET176      0.2261
     72  O        -26.1820   49.7770   12.7720 O.2   176  MET176     -0.2867
     73  CB       -25.7350   52.1050   14.0320 C.3   176  MET176      0.0387
     74  CG       -24.6250   52.4000   13.0370 C.3   176  MET176      0.0595
     75  SD       -23.0450   52.8440   13.7690 S.3   176  MET176     -0.1393
     76  CE       -22.1030   51.3690   13.4370 C.3   176  MET176      0.0692
     77  N        -24.3390   34.0190   14.3310 N.3   187  LYS187     -0.1245
     78  CA       -23.4730   33.8930   15.4930 C.3   187  LYS187      0.1561
     79  C        -23.8410   32.6180   16.2330 C.2   187  LYS187      0.2260
     80  O        -25.0180   32.3240   16.3820 O.2   187  LYS187     -0.2867
     81  CB       -23.6880   35.1120   16.3950 C.3   187  LYS187      0.0271
     82  CG       -22.7930   35.2040   17.6010 C.3   187  LYS187      0.0035
     83  CD       -23.0910   36.4850   18.3460 C.3   187  LYS187      0.0206
     84  CE       -22.0600   36.7800   19.4060 C.3   187  LYS187      0.1093
     85  NZ       -22.1990   38.1830   19.8960 N.3   187  LYS187     -0.1314
     86  N        -14.0530   35.8120   16.4420 N.3   220  HIS220     -0.1241
     87  CA       -13.2930   37.0110   16.7740 C.3   220  HIS220      0.1621
     88  C        -12.5570   36.7420   18.0820 C.2   220  HIS220      0.2264
     89  O        -11.9570   37.6380   18.6670 O.2   220  HIS220     -0.2867
     90  CB       -14.1970   38.2310   16.9050 C.3   220  HIS220      0.0745
     91  CG       -14.7730   38.6890   15.6040 C.ar  220  HIS220      0.0817
     92  ND1      -15.6270   39.7660   15.5020 N.ar  220  HIS220     -0.2268
     93  CD2      -14.6320   38.2040   14.3480 C.ar  220  HIS220      0.1154
     94  CE1      -15.9900   39.9230   14.2410 C.ar  220  HIS220      0.1986
     95  NE2      -15.3990   38.9880   13.5200 N.ar  220  HIS220     -0.2212
     96  N        -13.7430   35.7760   21.1940 N.3   222  LYS222     -0.1245
     97  CA       -14.2840   36.0710   22.5020 C.3   222  LYS222      0.1561
     98  C        -15.2330   34.9850   22.9890 C.2   222  LYS222      0.2260
     99  O        -16.0440   35.2040   23.8910 O.2   222  LYS222     -0.2867
    100  CB       -14.9590   37.4430   22.4850 C.3   222  LYS222      0.0271
    101  CG       -14.0140   38.5690   22.0620 C.3   222  LYS222      0.0035
    102  CD       -14.7390   39.9080   21.9430 C.3   222  LYS222      0.0206
    103  CE       -13.8840   40.9640   21.2210 C.3   222  LYS222      0.1093
    104  NZ       -14.5960   42.2810   21.0650 N.3   222  LYS222     -0.1314
    105  N        -17.3200   32.8660   20.7830 N.3   224  ALA224     -0.1245
    106  CA       -18.4460   32.4810   19.9380 C.3   224  ALA224      0.1562
    107  C        -18.0460   32.3800   18.4810 C.2   224  ALA224      0.2260
    108  O        -17.1220   33.0580   18.0320 O.2   224  ALA224     -0.2867
    109  CB       -19.5730   33.4700   20.0900 C.3   224  ALA224      0.0290
    110  N        -18.5660   32.8750   14.4130 N.3   226  ARG226     -0.1245
    111  CA       -19.1810   33.8820   13.5630 C.3   226  ARG226      0.1563
    112  C        -19.2660   33.2360   12.1790 C.2   226  ARG226      0.2260
    113  O        -18.2480   32.8310   11.6130 O.2   226  ARG226     -0.2867
    114  CB       -18.3080   35.1330   13.5330 C.3   226  ARG226      0.0307
    115  CG       -19.0470   36.4270   13.2530 C.3   226  ARG226      0.0489
    116  CD       -19.6000   37.0700   14.5180 C.3   226  ARG226      0.2205
    117  NE       -20.1230   38.4120   14.2480 N.pl3 226  ARG226     -0.0865
    118  CZ       -20.6690   39.2210   15.1600 C.cat 226  ARG226      0.5346
    119  NH1      -20.7760   38.8430   16.4270 N.pl3 226  ARG226      0.1354
    120  NH2      -21.1130   40.4210   14.8030 N.pl3 226  ARG226      0.1354
    121  N        -10.0130   43.4340   10.7020 N.3   239  ARG239     -0.1231
    122  CA       -10.5480   43.9490   11.9530 C.3   239  ARG239      0.1694
    123  C        -10.0530   43.1970   13.1830 C.2   239  ARG239      0.2591
    124  O         -9.8250   43.8080   14.2230 O.2   239  ARG239     -0.2718
    125  CB       -12.0770   43.9340   11.9190 C.3   239  ARG239      0.0321
    126  CG       -12.6620   44.6430   10.7120 C.3   239  ARG239      0.0489
    127  CD       -13.9900   45.2940   11.0420 C.3   239  ARG239      0.2205
    128  NE       -14.9950   44.3290   11.4750 N.pl3 239  ARG239     -0.0865
    129  CZ       -15.6050   43.4660   10.6680 C.cat 239  ARG239      0.5346
    130  NH1      -15.3130   43.4420    9.3720 N.pl3 239  ARG239      0.1354
    131  NH2      -16.5160   42.6350   11.1590 N.pl3 239  ARG239      0.1354
    132  N         -9.8890   41.8790   13.0770 N.am  240  VAL240     -0.1980
    133  CA        -9.4200   41.0920   14.2180 C.3   240  VAL240      0.1595
    134  C         -7.9380   41.3330   14.4550 C.2   240  VAL240      0.2287
    135  O         -7.4710   41.3030   15.5930 O.2   240  VAL240     -0.2864
    136  CB        -9.6370   39.5680   14.0230 C.3   240  VAL240      0.0276
    137  CG1      -11.0980   39.2760   13.7580 C.3   240  VAL240      0.0022
    138  CG2       -8.7800   39.0580   12.8920 C.3   240  VAL240      0.0022
    139  N         -6.1660   44.2170   13.5390 N.3   242  ALA242     -0.1231
    140  CA        -6.0830   45.5770   14.0580 C.3   242  ALA242      0.1694
    141  C         -6.3470   45.5730   15.5590 C.2   242  ALA242      0.2592
    142  O         -5.6670   46.2560   16.3260 O.2   242  ALA242     -0.2718
    143  CB        -7.1010   46.4630   13.3500 C.3   242  ALA242      0.0304
    144  N         -7.3400   44.7880   15.9650 N.am  243  THR243     -0.1953
    145  CA        -7.7180   44.6660   17.3630 C.3   243  THR243      0.1897
    146  C         -6.6020   44.0250   18.1780 C.2   243  THR243      0.2313
    147  O         -6.2510   44.5110   19.2520 O.2   243  THR243     -0.2863
    148  CB        -8.9930   43.8220   17.5070 C.3   243  THR243      0.1794
    149  OG1      -10.0680   44.4710   16.8230 O.3   243  THR243     -0.2208
    150  CG2       -9.3650   43.6500   18.9670 C.3   243  THR243      0.0378
@<TRIPOS>BOND
     1    11     9    1
     2    10     9    1
     3     9     8    2
     4     8     7    1
     5     7     6    1
     6     1     2    1
     7     5     6    1
     8     5     2    1
     9     2     3    1
    10   130   129    1
    11     3     4    2
    12   129   131    1
    13   129   128    2
    14   121   122    1
    15   126   127    1
    16   126   125    1
    17    59    60    2
    18    59    58    1
    19   127   128    1
    20    61    58    1
    21    61    62    1
    22   113   112    2
    23    28    26    1
    24    58    57    1
    25   125   122    1
    26   122   123    1
    27   112   111    1
    28    63    62   ar
    29    63    65   ar
    30    25    26    2
    31    25    24    1
    32    26    27    1
    33    71    72    2
    34    71    70    1
    35    62    64   ar
    36   138   136    1
    37    74    75    1
    38    74    73    1
    39   132   123   am
    40   132   133    1
    41   123   124    2
    42   115   114    1
    43   115   116    1
    44    65    67   ar
    45   143   140    1
    46    24    23    1
    47    70    73    1
    48    70    69    1
    49    76    75    1
    50    95    94   ar
    51    95    93   ar
    52   114   111    1
    53   139   140    1
    54   111   110    1
    55   137   136    1
    56    64    66   ar
    57   136   133    1
    58   140   141    1
    59   133   134    1
    60    94    92   ar
    61   117   116    1
    62   117   118    2
    63    77    78    1
    64    93    91   ar
    65   134   135    2
    66    23    22    1
    67    67    66   ar
    68    67    68    1
    69   120   118    1
    70   118   119    1
    71    78    79    1
    72    78    81    1
    73    92    91   ar
    74   141   144   am
    75   141   142    2
    76    91    90    1
    77    22    19    1
    78   144   145    1
    79    79    80    2
    80    81    82    1
    81    86    87    1
    82    87    90    1
    83    87    88    1
    84   149   148    1
    85    19    18    1
    86    19    20    1
    87   145   148    1
    88   145   146    1
    89   148   150    1
    90    82    83    1
    91   108   107    2
    92    88    89    2
    93    17    16    1
    94    55    54   ar
    95   146   147    2
    96    20    21    2
    97    20    29   am
    98    83    84    1
    99    56    54   ar
   100   107   106    1
   101    54    53    1
   102    29    30    1
   103    16    13    1
   104    84    85    1
   105    13    14    1
   106    13    12    1
   107    53    52    1
   108    14    15    2
   109   106   109    1
   110   106   105    1
   111    30    33    1
   112    30    31    1
   113    33    34    1
   114    52    49    1
   115    51    50    2
   116   104   103    1
   117    31    32    2
   118    96    97    1
   119   103   102    1
   120    50    49    1
   121    36    34   ar
   122    36    38   ar
   123    34    35   ar
   124    49    48    1
   125   102   101    1
   126   101   100    1
   127    47    45   ar
   128   100    97    1
   129    97    98    1
   130    38    37   ar
   131    35    37   ar
   132    46    45   ar
   133    98    99    2
   134    45    44    1
   135    44    43    1
   136    43    40    1
   137    42    41    2
   138    41    40    1
   139    40    39    1
