@<TRIPOS>MOLECULE
tmp/2r8oA01.pdb
 127 120 0 0 0
SMALL
GASTEIGER

@<TRIPOS>ATOM
      1  N         31.3740   18.4110   18.5500 N.3   357  ARG357     -0.1245
      2  CA        32.0410   17.5630   17.5420 C.3   357  ARG357      0.1563
      3  C         33.5600   17.7890   17.5310 C.2   357  ARG357      0.2260
      4  O         34.3330   16.8440   17.3780 O.2   357  ARG357     -0.2867
      5  CB        31.4360   17.7290   16.1360 C.3   357  ARG357      0.0307
      6  CG        31.6070   19.0990   15.4910 C.3   357  ARG357      0.0489
      7  CD        31.1300   19.0900   14.0450 C.3   357  ARG357      0.2205
      8  NE        31.1080   20.4400   13.4790 N.pl3 357  ARG357     -0.0865
      9  CZ        31.2100   20.7250   12.1840 C.cat 357  ARG357      0.5346
     10  NH1       31.3430   19.7610   11.2830 N.pl3 357  ARG357      0.1354
     11  NH2       31.1650   21.9940   11.7890 N.pl3 357  ARG357      0.1354
     12  N         31.0550    7.0490    8.4250 N.3   379  ALA379     -0.1231
     13  CA        30.3210    6.7060    7.2060 C.3   379  ALA379      0.1694
     14  C         30.3500    7.8610    6.1930 C.2   379  ALA379      0.2592
     15  O         29.3540    8.5700    5.9850 O.2   379  ALA379     -0.2718
     16  CB        28.8850    6.2840    7.5510 C.3   379  ALA379      0.0304
     17  N         31.5180    8.0570    5.5800 N.am  380  ASP380     -0.1960
     18  CA        31.7590    9.1300    4.5890 C.3   380  ASP380      0.1840
     19  C         31.5790   10.5390    5.1410 C.2   380  ASP380      0.2621
     20  O         31.1770   11.4430    4.4110 O.2   380  ASP380     -0.2715
     21  CB        30.9140    8.9520    3.3080 C.3   380  ASP380      0.1450
     22  CG        31.4460    9.7800    2.1320 C.2   380  ASP380      0.3671
     23  OD1       32.6790    9.7560    1.8990 O.co2 380  ASP380     -0.2456
     24  OD2       30.6260   10.4500    1.4570 O.co2 380  ASP380     -0.2456
     25  N         31.8800   10.7320    6.4230 N.am  381  LEU381     -0.1977
     26  CA        31.7470   12.0580    7.0300 C.3   381  LEU381      0.1596
     27  C         32.9430   12.4260    7.8980 C.2   381  LEU381      0.2287
     28  O         32.8080   13.2070    8.8410 O.2   381  LEU381     -0.2864
     29  CB        30.4290   12.1680    7.8170 C.3   381  LEU381      0.0297
     30  CG        29.1380   12.2240    6.9970 C.3   381  LEU381      0.0022
     31  CD1       27.9390   12.0050    7.9040 C.3   381  LEU381      0.0001
     32  CD2       29.0020   13.5630    6.2680 C.3   381  LEU381      0.0001
     33  N         33.3890   16.0800    8.7060 N.3   384  SER384     -0.1217
     34  CA        32.2170   16.6820    9.3330 C.3   384  SER384      0.1889
     35  C         31.9780   16.1440   10.7460 C.2   384  SER384      0.2288
     36  O         31.6710   16.9140   11.6700 O.2   384  SER384     -0.2866
     37  CB        30.9860   16.4490    8.4600 C.3   384  SER384      0.2089
     38  OG        29.8840   17.1940    8.9400 O.3   384  SER384     -0.2183
     39  N         29.1750    5.3720    2.5720 N.3   408  VAL408     -0.1245
     40  CA        27.8280    5.7780    2.9850 C.3   408  VAL408      0.1561
     41  C         27.0050    4.5310    3.3510 C.2   408  VAL408      0.2260
     42  O         26.1130    4.0870    2.6100 O.2   408  VAL408     -0.2867
     43  CB        27.1480    6.6600    1.9090 C.3   408  VAL408      0.0252
     44  CG1       25.9030    7.3000    2.4750 C.3   408  VAL408      0.0019
     45  CG2       28.1140    7.7550    1.4060 C.3   408  VAL408      0.0019
     46  N         25.7490    3.3030    6.9330 N.3   410  GLU410     -0.1245
     47  CA        25.6000    3.4240    8.3970 C.3   410  GLU410      0.1567
     48  C         25.2840    2.1170    9.1020 C.2   410  GLU410      0.2260
     49  O         25.8770    1.8120   10.1410 O.2   410  GLU410     -0.2867
     50  CB        24.5610    4.4820    8.7780 C.3   410  GLU410      0.0388
     51  CG        24.8850    5.8800    8.2740 C.3   410  GLU410      0.1160
     52  CD        24.4560    6.1350    6.8380 C.2   410  GLU410      0.3649
     53  OE1       23.7510    5.2880    6.2380 O.co2 410  GLU410     -0.2457
     54  OE2       24.8480    7.2030    6.3180 O.co2 410  GLU410     -0.2457
     55  N         26.0390   11.4630   11.1530 N.3   433  PHE433     -0.1241
     56  CA        25.0950   12.4290   11.7230 C.3   433  PHE433      0.1605
     57  C         24.0640   11.6630   12.5450 C.2   433  PHE433      0.2264
     58  O         23.6380   10.5650   12.1650 O.2   433  PHE433     -0.2867
     59  CB        24.3500   13.2190   10.6400 C.3   433  PHE433      0.0534
     60  CG        25.2170   14.1280    9.8020 C.ar  433  PHE433     -0.0203
     61  CD1       26.4260   14.6430   10.2740 C.ar  433  PHE433     -0.0042
     62  CD2       24.7930   14.5010    8.5300 C.ar  433  PHE433     -0.0042
     63  CE1       27.2100   15.4860    9.4710 C.ar  433  PHE433     -0.0003
     64  CE2       25.5680   15.3520    7.7320 C.ar  433  PHE433     -0.0003
     65  CZ        26.7710   15.8450    8.2030 C.ar  433  PHE433     -0.0000
     66  N         21.0550    9.7840   11.0480 N.3   436  PHE436     -0.1241
     67  CA        21.2660    8.5460   10.3160 C.3   436  PHE436      0.1605
     68  C         21.6030    7.3590   11.2110 C.2   436  PHE436      0.2264
     69  O         21.8000    6.2470   10.7060 O.2   436  PHE436     -0.2867
     70  CB        22.2070    8.7870    9.1310 C.3   436  PHE436      0.0534
     71  CG        21.7420    9.9310    8.2650 C.ar  436  PHE436     -0.0203
     72  CD1       20.4100    9.9730    7.8360 C.ar  436  PHE436     -0.0042
     73  CD2       22.5780   11.0010    7.9390 C.ar  436  PHE436     -0.0042
     74  CE1       19.9250   11.0340    7.0790 C.ar  436  PHE436     -0.0003
     75  CE2       22.0950   12.0720    7.1750 C.ar  436  PHE436     -0.0003
     76  CZ        20.7680   12.0880    6.7470 C.ar  436  PHE436     -0.0000
     77  N         19.1780    4.7570   10.1930 N.3   439  TYR439     -0.1241
     78  CA        19.5720    3.7510    9.2040 C.3   439  TYR439      0.1605
     79  C         20.2240    2.5360    9.8710 C.2   439  TYR439      0.2264
     80  O         20.1090    1.4180    9.3670 O.2   439  TYR439     -0.2867
     81  CB        20.5560    4.3460    8.1780 C.3   439  TYR439      0.0534
     82  CG        19.9480    5.1460    7.0360 C.ar  439  TYR439     -0.0201
     83  CD1       19.0880    6.2300    7.2680 C.ar  439  TYR439     -0.0009
     84  CD2       20.2520    4.8300    5.7140 C.ar  439  TYR439     -0.0009
     85  CE1       18.5460    6.9530    6.2060 C.ar  439  TYR439      0.0417
     86  CE2       19.7180    5.5480    4.6570 C.ar  439  TYR439      0.0417
     87  CZ        18.8730    6.6120    4.9100 C.ar  439  TYR439      0.1957
     88  OH        18.3380    7.3370    3.8760 O.3   439  TYR439     -0.2866
     89  N         25.8970   16.6620   14.7870 N.3   460  HIS460     -0.1241
     90  CA        24.7900   17.3870   14.1450 C.3   460  HIS460      0.1621
     91  C         23.4760   17.0020   14.8210 C.2   460  HIS460      0.2264
     92  O         22.5400   16.4980   14.1950 O.2   460  HIS460     -0.2867
     93  CB        24.7820   17.1220   12.6330 C.3   460  HIS460      0.0745
     94  CG        25.9760   17.6800   11.9200 C.ar  460  HIS460      0.0817
     95  ND1       27.2730   17.3330   12.2450 N.ar  460  HIS460     -0.2268
     96  CD2       26.0670   18.5510   10.8860 C.ar  460  HIS460      0.1154
     97  CE1       28.1110   17.9790   11.4510 C.ar  460  HIS460      0.1986
     98  NE2       27.4030   18.7230   10.6150 N.ar  460  HIS460     -0.2212
     99  N         20.5290   22.5930    6.5510 N.3   468  ASP468     -0.1239
    100  CA        20.2120   21.3070    5.9070 C.3   468  ASP468      0.1674
    101  C         18.7490   20.8740    6.1280 C.2   468  ASP468      0.2266
    102  O         18.1990   20.1410    5.3160 O.2   468  ASP468     -0.2867
    103  CB        21.1880   20.1920    6.3050 C.3   468  ASP468      0.1410
    104  CG        22.4880   20.2110    5.5080 C.2   468  ASP468      0.3668
    105  OD1       22.5890   20.9060    4.4670 O.co2 468  ASP468     -0.2456
    106  OD2       23.4280   19.4990    5.9430 O.co2 468  ASP468     -0.2456
    107  N         17.4240   16.2240    8.1770 N.3   472  HIS472     -0.1241
    108  CA        18.7270   16.0750    8.8220 C.3   472  HIS472      0.1621
    109  C         18.6820   16.4020   10.3180 C.2   472  HIS472      0.2264
    110  O         19.4980   15.8820   11.0800 O.2   472  HIS472     -0.2867
    111  CB        19.7510   17.0020    8.1450 C.3   472  HIS472      0.0745
    112  CG        20.3420   16.4610    6.8800 C.ar  472  HIS472      0.0817
    113  ND1       19.5820   16.0650    5.7960 N.ar  472  HIS472     -0.2268
    114  CD2       21.6360   16.3050    6.5130 C.ar  472  HIS472      0.1154
    115  CE1       20.3900   15.6750    4.8210 C.ar  472  HIS472      0.1986
    116  NE2       21.6370   15.8070    5.2320 N.ar  472  HIS472     -0.2212
    117  N         26.9650   20.4900   15.9230 N.3   519  ARG519     -0.1245
    118  CA        27.6660   21.1260   14.8150 C.3   519  ARG519      0.1563
    119  C         28.2610   22.4620   15.2610 C.2   519  ARG519      0.2260
    120  O         29.3740   22.8100   14.8640 O.2   519  ARG519     -0.2867
    121  CB        26.7090   21.3680   13.6460 C.3   519  ARG519      0.0307
    122  CG        27.3770   21.9570   12.4150 C.3   519  ARG519      0.0489
    123  CD        26.3550   22.2440   11.3300 C.3   519  ARG519      0.2205
    124  NE        26.9790   22.5620   10.0440 N.pl3 519  ARG519     -0.0865
    125  CZ        26.7450   23.6550    9.3210 C.cat 519  ARG519      0.5346
    126  NH1       25.8880   24.5870    9.7290 N.pl3 519  ARG519      0.1354
    127  NH2       27.3750   23.8120    8.1600 N.pl3 519  ARG519      0.1354
@<TRIPOS>BOND
     1    45    43    1
     2    24    22   ar
     3    23    22   ar
     4    43    44    1
     5    43    40    1
     6    22    21    1
     7    39    40    1
     8    42    41    2
     9    40    41    1
    10    21    18    1
    11    88    87    1
    12    20    19    2
    13   105   104   ar
    14    18    19    1
    15    18    17    1
    16    86    87   ar
    17    86    84   ar
    18   115   116   ar
    19   115   113   ar
    20    87    85   ar
    21    19    25   am
    22   116   114   ar
    23   102   101    2
    24   104   106   ar
    25   104   103    1
    26    17    14   am
    27    84    82   ar
    28   113   112   ar
    29   100   101    1
    30   100   103    1
    31   100    99    1
    32    15    14    2
    33    14    13    1
    34    85    83   ar
    35    53    52   ar
    36    32    30    1
    37    54    52   ar
    38    25    26    1
    39   114   112   ar
    40    76    74   ar
    41    76    75   ar
    42    52    51    1
    43   112   111    1
    44    46    47    1
    45    30    29    1
    46    30    31    1
    47    26    29    1
    48    26    27    1
    49    82    83   ar
    50    82    81    1
    51    74    72   ar
    52    75    73   ar
    53    13    16    1
    54    13    12    1
    55    64    65   ar
    56    64    62   ar
    57    72    71   ar
    58    27    28    2
    59    73    71   ar
    60   111   108    1
    61   127   125    1
    62   107   108    1
    63    81    78    1
    64    65    63   ar
    65    71    70    1
    66    51    50    1
    67    47    50    1
    68    47    48    1
    69    37    38    1
    70    37    34    1
    71    62    60   ar
    72    33    34    1
    73   108   109    1
    74    48    49    2
    75    70    67    1
    76    78    79    1
    77    78    77    1
    78   125   126    1
    79   125   124    2
    80    34    35    1
    81    80    79    2
    82    63    61   ar
    83    60    61   ar
    84    60    59    1
    85   124   123    1
    86    67    66    1
    87    67    68    1
    88   109   110    2
    89    98    96   ar
    90    98    97   ar
    91    59    56    1
    92    69    68    2
    93    35    36    2
    94    96    94   ar
    95    55    56    1
    96    10     9    1
    97   123   122    1
    98    97    95   ar
    99    56    57    1
   100    11     9    1
   101    94    95   ar
   102    94    93    1
   103    58    57    2
   104     9     8    2
   105   122   121    1
   106    93    90    1
   107     8     7    1
   108   121   118    1
   109     7     6    1
   110    90    89    1
   111    90    91    1
   112    92    91    2
   113   118   119    1
   114   118   117    1
   115   120   119    2
   116     6     5    1
   117     5     2    1
   118     4     3    2
   119     3     2    1
   120     2     1    1
