@<TRIPOS>MOLECULE
tmp/2r8oA00.pdb
 147 139 0 0 0
SMALL
GASTEIGER

@<TRIPOS>ATOM
      1  N         12.8370  -23.9960   13.9380 N.3    25  HIS25      -0.1241
      2  CA        13.0750  -23.9940   12.5030 C.3    25  HIS25       0.1621
      3  C         13.9370  -25.1800   12.0750 C.2    25  HIS25       0.2264
      4  O         15.1630  -25.1360   12.1880 O.2    25  HIS25      -0.2867
      5  CB        13.7630  -22.6830   12.1080 C.3    25  HIS25       0.0745
      6  CG        12.9940  -21.4530   12.4860 C.ar   25  HIS25       0.0817
      7  ND1       12.8800  -21.0080   13.7870 N.ar   25  HIS25      -0.2268
      8  CD2       12.3250  -20.5580   11.7220 C.ar   25  HIS25       0.1154
      9  CE1       12.1540  -19.9040   13.8080 C.ar   25  HIS25       0.1986
     10  NE2       11.8080  -19.6080   12.5670 N.ar   25  HIS25      -0.2212
     11  N         16.4690  -25.1270    7.6390 N.3    28  ALA28      -0.1245
     12  CA        17.8470  -24.7650    7.3190 C.3    28  ALA28       0.1562
     13  C         18.8770  -25.7020    7.9630 C.2    28  ALA28       0.2260
     14  O         19.8420  -26.0620    7.3000 O.2    28  ALA28      -0.2867
     15  CB        18.1440  -23.2900    7.6570 C.3    28  ALA28       0.0290
     16  N         22.0350  -16.8980    9.0260 N.3    63  ASN63      -0.1240
     17  CA        20.6620  -17.4110    8.9970 C.3    63  ASN63       0.1653
     18  C         20.3330  -18.0570   10.3470 C.2    63  ASN63       0.2266
     19  O         20.1580  -19.2700   10.4450 O.2    63  ASN63      -0.2867
     20  CB        20.3930  -18.3390    7.7870 C.3    63  ASN63       0.1155
     21  CG        21.5140  -19.3580    7.5070 C.2    63  ASN63       0.2627
     22  OD1       22.5940  -19.3390    8.0960 O.2    63  ASN63      -0.2716
     23  ND2       21.2420  -20.2470    6.5470 N.am   63  ASN63      -0.0877
     24  N         17.9260  -18.2800   12.5060 N.3    65  HIS65      -0.1241
     25  CA        16.7500  -19.0960   12.8130 C.3    65  HIS65       0.1621
     26  C         17.0900  -20.5860   12.8150 C.2    65  HIS65       0.2264
     27  O         16.4520  -21.3620   13.5210 O.2    65  HIS65      -0.2867
     28  CB        15.6010  -18.8190   11.8390 C.3    65  HIS65       0.0745
     29  CG        15.9830  -18.9260   10.3980 C.ar   65  HIS65       0.0817
     30  ND1       16.5900  -17.8970    9.7080 N.ar   65  HIS65      -0.2268
     31  CD2       15.8510  -19.9470    9.5170 C.ar   65  HIS65       0.1154
     32  CE1       16.8070  -18.2790    8.4620 C.ar   65  HIS65       0.1986
     33  NE2       16.3660  -19.5160    8.3190 N.ar   65  HIS65      -0.2212
     34  N         17.0970  -18.1860   18.9780 N.3    99  HIS99      -0.1241
     35  CA        18.1500  -17.6800   18.0890 C.3    99  HIS99       0.1621
     36  C         19.4380  -17.6510   18.9210 C.2    99  HIS99       0.2264
     37  O         19.3850  -17.4230   20.1240 O.2    99  HIS99      -0.2867
     38  CB        17.7620  -16.3030   17.5160 C.3    99  HIS99       0.0745
     39  CG        16.6050  -16.3640   16.5650 C.ar   99  HIS99       0.0817
     40  ND1       15.2900  -16.3000   16.9800 N.ar   99  HIS99      -0.2268
     41  CD2       16.5650  -16.5490   15.2220 C.ar   99  HIS99       0.1154
     42  CE1       14.4930  -16.4070   15.9280 C.ar   99  HIS99       0.1986
     43  NE2       15.2420  -16.5630   14.8500 N.ar   99  HIS99      -0.2212
     44  N         19.5770  -13.7390   14.2570 N.3   113  GLY113     -0.1210
     45  CA        18.1230  -13.6210   14.2960 C.3   113  GLY113      0.1940
     46  C         17.6350  -12.4830   13.4150 C.2   113  GLY113      0.2454
     47  O         16.7350  -12.6810   12.5910 O.2   113  GLY113     -0.2732
     48  N         18.1980  -11.2740   13.5920 N.am  114  PRO114     -0.2717
     49  CA        17.9550  -10.1950   12.6300 C.3   114  PRO114      0.1535
     50  C         18.7650  -10.4630   11.3600 C.2   114  PRO114      0.2598
     51  O         20.0010  -10.3930   11.3740 O.2   114  PRO114     -0.2715
     52  CB        18.4550   -8.9410   13.3720 C.3   114  PRO114      0.0310
     53  CG        18.5920   -9.3830   14.8470 C.3   114  PRO114      0.0237
     54  CD        19.0100  -10.8100   14.7330 C.3   114  PRO114      0.0939
     55  N         18.0680  -10.7990   10.2780 N.am  115  LEU115     -0.1978
     56  CA        18.7230  -11.2150    9.0360 C.3   115  LEU115      0.1596
     57  C         19.6830  -10.1560    8.4990 C.2   115  LEU115      0.2287
     58  O         19.4170   -8.9460    8.5890 O.2   115  LEU115     -0.2864
     59  CB        17.6840  -11.5940    7.9750 C.3   115  LEU115      0.0297
     60  CG        16.9100  -12.8840    8.2890 C.3   115  LEU115      0.0022
     61  CD1       15.6150  -12.9150    7.4980 C.3   115  LEU115      0.0001
     62  CD2       17.7320  -14.1410    8.0050 C.3   115  LEU115      0.0001
     63  N         21.5810  -17.1570    4.1450 N.3   153  GLY153     -0.1210
     64  CA        20.5150  -17.5860    3.2360 C.3   153  GLY153      0.1956
     65  C         19.9590  -16.4740    2.3640 C.2   153  GLY153      0.2612
     66  O         20.5450  -15.3870    2.2450 O.2   153  GLY153     -0.2717
     67  N         18.8050  -16.7430    1.7580 N.am  154  ASP154     -0.1959
     68  CA        18.1630  -15.7620    0.8740 C.3   154  ASP154      0.1840
     69  C         17.7780  -14.4790    1.6070 C.2   154  ASP154      0.2622
     70  O         17.8540  -13.4000    1.0350 O.2   154  ASP154     -0.2715
     71  CB        16.9190  -16.3380    0.1920 C.3   154  ASP154      0.1450
     72  CG        17.2100  -17.5740   -0.6290 C.2   154  ASP154      0.3671
     73  OD1       17.8880  -17.4630   -1.6710 O.co2 154  ASP154     -0.2456
     74  OD2       16.7190  -18.6540   -0.2570 O.co2 154  ASP154     -0.2456
     75  N         17.3620  -14.5970    2.8650 N.am  155  GLY155     -0.1954
     76  CA        16.9710  -13.4170    3.6350 C.3   155  GLY155      0.1869
     77  C         18.1160  -12.4460    3.8400 C.2   155  GLY155      0.2309
     78  O         17.9660  -11.2360    3.6410 O.2   155  GLY155     -0.2863
     79  N         18.5100   -8.5490    2.1550 N.3   159  GLU159     -0.1245
     80  CA        18.6890   -7.3750    3.0240 C.3   159  GLU159      0.1567
     81  C         19.7540   -6.4170    2.4960 C.2   159  GLU159      0.2260
     82  O         20.8240   -6.8370    2.0650 O.2   159  GLU159     -0.2867
     83  CB        19.0440   -7.8100    4.4540 C.3   159  GLU159      0.0388
     84  CG        17.8640   -8.3340    5.2740 C.3   159  GLU159      0.1160
     85  CD        16.8460   -7.2640    5.6700 C.2   159  GLU159      0.3649
     86  OE1       17.0370   -6.0580    5.3820 O.co2 159  GLU159     -0.2457
     87  OE2       15.8410   -7.6550    6.3180 O.co2 159  GLU159     -0.2457
     88  N         23.3120  -20.5900    1.3850 N.3   182  ASP182     -0.1239
     89  CA        22.3220  -21.6570    1.3750 C.3   182  ASP182      0.1674
     90  C         21.2940  -21.3670    0.2770 C.2   182  ASP182      0.2266
     91  O         20.2430  -20.7680    0.5250 O.2   182  ASP182     -0.2867
     92  CB        21.6490  -21.7430    2.7490 C.3   182  ASP182      0.1410
     93  CG        20.9230  -23.0440    2.9570 C.2   182  ASP182      0.3668
     94  OD1       21.2950  -24.0400    2.3010 O.co2 182  ASP182     -0.2456
     95  OD2       20.0090  -23.0790    3.8010 O.co2 182  ASP182     -0.2456
     96  N         18.6260  -22.3410   -1.5660 N.3   184  ASN184     -0.1240
     97  CA        17.5680  -23.3510   -1.5240 C.3   184  ASN184      0.1653
     98  C         16.2340  -22.9640   -2.1830 C.2   184  ASN184      0.2266
     99  O         15.2960  -23.7640   -2.2020 O.2   184  ASN184     -0.2867
    100  CB        17.3580  -23.8940   -0.0910 C.3   184  ASN184      0.1155
    101  CG        16.8290  -22.8500    0.8740 C.2   184  ASN184      0.2627
    102  OD1       16.2730  -21.8280    0.4650 O.2   184  ASN184     -0.2716
    103  ND2       16.9840  -23.1130    2.1660 N.am  184  ASN184     -0.0877
    104  N         13.7680  -21.0660   -1.4200 N.3   186  ILE186     -0.1231
    105  CA        12.5680  -20.9600   -0.5760 C.3   186  ILE186      0.1692
    106  C         12.7430  -19.8600    0.4640 C.2   186  ILE186      0.2593
    107  O         13.8040  -19.7550    1.0820 O.2   186  ILE186     -0.2718
    108  CB        12.2980  -22.3110    0.1680 C.3   186  ILE186      0.0266
    109  CG1       11.9080  -23.4210   -0.8200 C.3   186  ILE186      0.0019
    110  CG2       11.2840  -22.1460    1.3260 C.3   186  ILE186      0.0020
    111  CD1       10.5560  -23.2360   -1.5440 C.3   186  ILE186      0.0001
    112  N         11.7130  -19.0340    0.6440 N.am  187  SER187     -0.1938
    113  CA        11.6300  -18.1470    1.8100 C.3   187  SER187      0.2055
    114  C         10.2280  -18.2860    2.4060 C.2   187  SER187      0.2642
    115  O          9.4720  -19.1750    2.0030 O.2   187  SER187     -0.2714
    116  CB        12.0220  -16.6930    1.4770 C.3   187  SER187      0.2130
    117  OG        11.0880  -16.0610    0.6170 O.3   187  SER187     -0.2179
    118  N          9.8720  -17.4460    3.3730 N.am  188  ILE188     -0.1977
    119  CA         8.5950  -17.6550    4.0710 C.3   188  ILE188      0.1596
    120  C          7.3780  -17.5580    3.1470 C.2   188  ILE188      0.2287
    121  O          6.4280  -18.3370    3.2900 O.2   188  ILE188     -0.2864
    122  CB         8.4710  -16.7460    5.3180 C.3   188  ILE188      0.0276
    123  CG1        9.3850  -17.2730    6.4280 C.3   188  ILE188      0.0022
    124  CG2        7.0160  -16.6450    5.7950 C.3   188  ILE188      0.0022
    125  CD1        9.4650  -16.4070    7.6540 C.3   188  ILE188      0.0001
    126  N         15.9000  -27.3850    1.2810 N.3   246  ILE246     -0.1245
    127  CA        15.4510  -27.0610    2.6380 C.3   246  ILE246      0.1561
    128  C         14.7120  -28.2760    3.2140 C.2   246  ILE246      0.2260
    129  O         13.9490  -28.9180    2.5050 O.2   246  ILE246     -0.2867
    130  CB        14.5910  -25.7650    2.6640 C.3   246  ILE246      0.0252
    131  CG1       14.4370  -25.2490    4.0970 C.3   246  ILE246      0.0019
    132  CG2       13.2280  -25.9610    1.9660 C.3   246  ILE246      0.0019
    133  CD1       13.8220  -23.8530    4.1970 C.3   246  ILE246      0.0001
    134  N         10.3710  -24.5700    6.7710 N.3   260  HIS260     -0.1226
    135  CA        11.1850  -23.4420    7.2160 C.3   260  HIS260      0.1752
    136  C         11.1160  -23.2080    8.7190 C.2   260  HIS260      0.2596
    137  O         12.1580  -23.0590    9.3710 O.2   260  HIS260     -0.2718
    138  CB        10.8120  -22.1270    6.5110 C.3   260  HIS260      0.0759
    139  CG        11.2620  -20.9120    7.2650 C.ar  260  HIS260      0.0818
    140  ND1       12.5630  -20.4570    7.2320 N.ar  260  HIS260     -0.2268
    141  CD2       10.6000  -20.0940    8.1180 C.ar  260  HIS260      0.1154
    142  CE1       12.6770  -19.3960    8.0110 C.ar  260  HIS260      0.1986
    143  NE2       11.4990  -19.1540    8.5590 N.ar  260  HIS260     -0.2212
    144  N          9.9010  -23.1630    9.2660 N.am  261  GLY261     -0.1957
    145  CA         9.7160  -22.4910   10.5470 C.3   261  GLY261      0.1869
    146  C          8.7620  -23.0960   11.5390 C.2   261  GLY261      0.2309
    147  O          8.2880  -22.4080   12.4390 O.2   261  GLY261     -0.2863
@<TRIPOS>BOND
     1    99    98    2
     2    98    97    1
     3    73    72   ar
     4    96    97    1
     5   111   109    1
     6    97   100    1
     7   104   105    1
     8   109   108    1
     9    72    74   ar
    10    72    71    1
    11   105   108    1
    12   105   106    1
    13   100   101    1
    14   108   110    1
    15    71    68    1
    16    90    91    2
    17    90    89    1
    18   106   112   am
    19   106   107    2
    20   102   101    2
    21   117   116    1
    22   112   113    1
    23    68    69    1
    24    68    67    1
    25   101   103   am
    26    70    69    2
    27   126   127    1
    28    89    88    1
    29    89    92    1
    30   116   113    1
    31    69    75   am
    32    67    65   am
    33   113   114    1
    34   132   130    1
    35   115   114    2
    36    82    81    2
    37    79    80    1
    38    66    65    2
    39    94    93   ar
    40    65    64    1
    41   114   118   am
    42    81    80    1
    43   129   128    2
    44   127   130    1
    45   127   128    1
    46   130   131    1
    47    92    93    1
    48    75    76    1
    49    93    95   ar
    50    80    83    1
    51   120   121    2
    52   120   119    1
    53    64    63    1
    54   118   119    1
    55    76    77    1
    56    78    77    2
    57   119   122    1
    58   131   133    1
    59    83    84    1
    60    84    85    1
    61   122   124    1
    62   122   123    1
    63    86    85   ar
    64    85    87   ar
    65   123   125    1
    66   138   135    1
    67   138   139    1
    68    23    21   am
    69   134   135    1
    70   135   136    1
    71   140   139   ar
    72   140   142   ar
    73   139   141   ar
    74    14    13    2
    75    12    11    1
    76    12    15    1
    77    12    13    1
    78    61    60    1
    79    21    20    1
    80    21    22    2
    81    20    17    1
    82    59    60    1
    83    59    56    1
    84    62    60    1
    85   142   143   ar
    86   141   143   ar
    87    33    32   ar
    88    33    31   ar
    89    32    30   ar
    90    57    58    2
    91    57    56    1
    92   136   144   am
    93   136   137    2
    94    17    16    1
    95    17    18    1
    96    56    55    1
    97   144   145    1
    98    31    29   ar
    99    30    29   ar
   100    55    50   am
   101    18    19    2
   102    29    28    1
   103   145   146    1
   104    50    51    2
   105    50    49    1
   106   146   147    2
   107     8     6   ar
   108     8    10   ar
   109    28    25    1
   110     3     4    2
   111     3     2    1
   112     5     6    1
   113     5     2    1
   114     6     7   ar
   115     2     1    1
   116    24    25    1
   117    10     9   ar
   118    47    46    2
   119    49    52    1
   120    49    48    1
   121    25    26    1
   122    26    27    2
   123    52    53    1
   124    46    48   am
   125    46    45    1
   126    48    54    1
   127     7     9   ar
   128    44    45    1
   129    54    53    1
   130    43    41   ar
   131    43    42   ar
   132    41    39   ar
   133    42    40   ar
   134    39    40   ar
   135    39    38    1
   136    38    35    1
   137    35    36    1
   138    35    34    1
   139    36    37    2
