@<TRIPOS>MOLECULE
tmp/2r8pB00.pdb
 141 135 0 0 0
SMALL
GASTEIGER

@<TRIPOS>ATOM
      1  N         -3.3400   -9.5840   15.2230 N.3   357  ARG357     -0.1245
      2  CA        -2.8920   -9.8030   13.8350 C.3   357  ARG357      0.1563
      3  C         -4.0280  -10.4040   12.9950 C.2   357  ARG357      0.2260
      4  O         -4.2030  -10.0490   11.8210 O.2   357  ARG357     -0.2867
      5  CB        -1.6040  -10.6510   13.7390 C.3   357  ARG357      0.0307
      6  CG        -1.7160  -12.0700   14.2890 C.3   357  ARG357      0.0489
      7  CD        -0.5380  -12.9260   13.8400 C.3   357  ARG357      0.2205
      8  NE        -0.6200  -14.2750   14.4160 N.pl3 357  ARG357     -0.0865
      9  CZ         0.1740  -15.2950   14.0940 C.cat 357  ARG357      0.5346
     10  NH1        1.1400  -15.1490   13.1890 N.pl3 357  ARG357      0.1354
     11  NH2        0.0150  -16.4770   14.6990 N.pl3 357  ARG357      0.1354
     12  N          7.0400   -7.9120    3.9640 N.3   379  ALA379     -0.1231
     13  CA         8.4540   -8.2150    3.6910 C.3   379  ALA379      0.1694
     14  C          8.7050   -9.6960    4.0160 C.2   379  ALA379      0.2592
     15  O          9.2980  -10.0360    5.0450 O.2   379  ALA379     -0.2718
     16  CB         9.3660   -7.3040    4.5090 C.3   379  ALA379      0.0304
     17  N          8.2140  -10.5670    3.1330 N.am  380  ASP380     -0.1960
     18  CA         8.3810  -12.0260    3.2420 C.3   380  ASP380      0.1840
     19  C          7.7680  -12.6210    4.5160 C.2   380  ASP380      0.2621
     20  O          8.2740  -13.6170    5.0520 O.2   380  ASP380     -0.2715
     21  CB         9.8620  -12.4600    3.1300 C.3   380  ASP380      0.1450
     22  CG        10.0140  -13.9680    2.8730 C.2   380  ASP380      0.3671
     23  OD1        9.3350  -14.4820    1.9530 O.co2 380  ASP380     -0.2456
     24  OD2       10.8160  -14.6260    3.5820 O.co2 380  ASP380     -0.2456
     25  N          6.6720  -12.0310    4.9850 N.am  381  LEU381     -0.1977
     26  CA         5.9860  -12.5620    6.1560 C.3   381  LEU381      0.1596
     27  C          4.4670  -12.6340    5.9700 C.2   381  LEU381      0.2287
     28  O          3.7130  -12.5400    6.9420 O.2   381  LEU381     -0.2864
     29  CB         6.3660  -11.7530    7.4140 C.3   381  LEU381      0.0297
     30  CG         7.7850  -11.9290    7.9680 C.3   381  LEU381      0.0022
     31  CD1        8.0730  -10.8660    9.0260 C.3   381  LEU381      0.0001
     32  CD2        7.9890  -13.3450    8.5450 C.3   381  LEU381      0.0001
     33  N          2.3540  -15.1150    5.6760 N.3   383  PRO383     -0.2102
     34  CA         1.6020  -16.0300    6.5490 C.3   383  PRO383      0.1504
     35  C          1.7160  -15.7630    8.0390 C.2   383  PRO383      0.2576
     36  O          1.0170  -16.4180    8.8280 O.2   383  PRO383     -0.2718
     37  CB         2.1880  -17.4090    6.2260 C.3   383  PRO383      0.0282
     38  CG         3.5480  -17.1520    5.6810 C.3   383  PRO383      0.0208
     39  CD         3.5590  -15.7460    5.0990 C.3   383  PRO383      0.0893
     40  N          2.5860  -14.8320    8.4220 N.am  384  SER384     -0.1953
     41  CA         2.7710  -14.4680    9.8290 C.3   384  SER384      0.1924
     42  C          2.1280  -13.1140   10.1530 C.2   384  SER384      0.2314
     43  O          1.4890  -12.9650   11.2120 O.2   384  SER384     -0.2863
     44  CB         4.2560  -14.4380   10.1840 C.3   384  SER384      0.2116
     45  OG         4.7730  -15.7570   10.2150 O.3   384  SER384     -0.2180
     46  N         12.6760   -9.8930    1.7110 N.3   408  VAL408     -0.1245
     47  CA        13.2020   -9.5230    3.0490 C.3   408  VAL408      0.1561
     48  C         13.8990   -8.1550    2.9680 C.2   408  VAL408      0.2260
     49  O         15.1380   -8.0410    2.9990 O.2   408  VAL408     -0.2867
     50  CB        14.1010  -10.6360    3.6570 C.3   408  VAL408      0.0252
     51  CG1       14.3710  -10.3400    5.1330 C.3   408  VAL408      0.0019
     52  CG2       13.4200  -12.0160    3.5230 C.3   408  VAL408      0.0019
     53  N         12.7710   -4.6470    4.5120 N.3   410  GLU410     -0.1245
     54  CA        11.8640   -3.7730    5.2660 C.3   410  GLU410      0.1567
     55  C         12.0100   -2.2930    4.9000 C.2   410  GLU410      0.2260
     56  O         11.0150   -1.5950    4.7060 O.2   410  GLU410     -0.2867
     57  CB        12.0450   -3.9560    6.7770 C.3   410  GLU410      0.0388
     58  CG        11.7370   -5.3620    7.2490 C.3   410  GLU410      0.1160
     59  CD        12.9000   -6.3410    7.0890 C.2   410  GLU410      0.3649
     60  OE1       14.0440   -5.9220    6.7880 O.co2 410  GLU410     -0.2457
     61  OE2       12.6600   -7.5510    7.2740 O.co2 410  GLU410     -0.2457
     62  N          5.7050   -5.9800    8.5440 N.3   432  THR432     -0.1203
     63  CA         6.7640   -6.8630    9.0110 C.3   432  THR432      0.1994
     64  C          6.5420   -7.0670   10.5060 C.2   432  THR432      0.2617
     65  O          5.6100   -6.4900   11.0680 O.2   432  THR432     -0.2717
     66  CB         8.1800   -6.2820    8.7280 C.3   432  THR432      0.1784
     67  OG1        9.1820   -7.2000    9.1940 O.3   432  THR432     -0.2211
     68  CG2        8.3830   -4.9150    9.3790 C.3   432  THR432      0.0376
     69  N          7.3730   -7.8790   11.1570 N.am  433  PHE433     -0.1975
     70  CA         7.3340   -7.9260   12.6310 C.3   433  PHE433      0.1639
     71  C          7.7200   -6.5520   13.1640 C.2   433  PHE433      0.2290
     72  O          8.6030   -5.9010   12.6050 O.2   433  PHE433     -0.2864
     73  CB         8.3380   -8.9510   13.1790 C.3   433  PHE433      0.0560
     74  CG         8.0240  -10.3860   12.8160 C.ar  433  PHE433     -0.0200
     75  CD1        6.7090  -10.8280   12.6950 C.ar  433  PHE433     -0.0042
     76  CD2        9.0640  -11.3060   12.6340 C.ar  433  PHE433     -0.0042
     77  CE1        6.4170  -12.1610   12.3680 C.ar  433  PHE433     -0.0003
     78  CE2        8.7760  -12.6500   12.3160 C.ar  433  PHE433     -0.0003
     79  CZ         7.4530  -13.0710   12.1910 C.ar  433  PHE433     -0.0000
     80  N         11.3360   -5.2570   13.3310 N.3   436  PHE436     -0.1241
     81  CA        12.0670   -4.8990   12.1140 C.3   436  PHE436      0.1605
     82  C         11.6340   -3.5680   11.4980 C.2   436  PHE436      0.2264
     83  O         12.1810   -3.1570   10.4720 O.2   436  PHE436     -0.2867
     84  CB        12.1660   -6.1030   11.1600 C.3   436  PHE436      0.0534
     85  CG        12.7200   -7.3030   11.8490 C.ar  436  PHE436     -0.0203
     86  CD1       13.9220   -7.2000   12.5620 C.ar  436  PHE436     -0.0042
     87  CD2       12.0300   -8.5200   11.8600 C.ar  436  PHE436     -0.0042
     88  CE1       14.4340   -8.3050   13.2740 C.ar  436  PHE436     -0.0003
     89  CE2       12.5360   -9.6210   12.5460 C.ar  436  PHE436     -0.0003
     90  CZ        13.7400   -9.5170   13.2610 C.ar  436  PHE436     -0.0000
     91  N         14.7350   -1.6880   11.0280 N.3   439  TYR439     -0.1241
     92  CA        15.4150   -1.7210    9.7280 C.3   439  TYR439      0.1605
     93  C         14.8990   -0.6120    8.8050 C.2   439  TYR439      0.2264
     94  O         15.6570   -0.0680    8.0020 O.2   439  TYR439     -0.2867
     95  CB        15.2280   -3.0840    9.0430 C.3   439  TYR439      0.0534
     96  CG        16.1800   -4.1750    9.4960 C.ar  439  TYR439     -0.0201
     97  CD1       16.2940   -4.5260   10.8560 C.ar  439  TYR439     -0.0009
     98  CD2       16.9290   -4.9080    8.5510 C.ar  439  TYR439     -0.0009
     99  CE1       17.1550   -5.5510   11.2580 C.ar  439  TYR439      0.0417
    100  CE2       17.8100   -5.9370    8.9480 C.ar  439  TYR439      0.0417
    101  CZ        17.9100   -6.2500   10.3010 C.ar  439  TYR439      0.1957
    102  OH        18.7460   -7.2780   10.6950 O.3   439  TYR439     -0.2866
    103  N          3.4210   -9.1340   16.0870 N.3   460  HIS460     -0.1241
    104  CA         4.3630   -9.7680   17.0170 C.3   460  HIS460      0.1621
    105  C          4.9830   -8.6790   17.9000 C.2   460  HIS460      0.2264
    106  O          6.1880   -8.4340   17.9120 O.2   460  HIS460     -0.2867
    107  CB         5.3880  -10.6420   16.2500 C.3   460  HIS460      0.0745
    108  CG         4.7580  -11.7800   15.5050 C.ar  460  HIS460      0.0817
    109  ND1        3.8120  -11.5980   14.5150 N.ar  460  HIS460     -0.2268
    110  CD2        4.9380  -13.1190   15.6070 C.ar  460  HIS460      0.1154
    111  CE1        3.4300  -12.7750   14.0470 C.ar  460  HIS460      0.1986
    112  NE2        4.0950  -13.7150   14.6970 N.ar  460  HIS460     -0.2212
    113  N         10.8710  -17.0690   19.9660 N.3   468  ASP468     -0.1239
    114  CA        11.8900  -16.4360   19.1020 C.3   468  ASP468      0.1674
    115  C         12.8810  -15.5440   19.8780 C.2   468  ASP468      0.2266
    116  O         14.0210  -15.3570   19.4510 O.2   468  ASP468     -0.2867
    117  CB        11.2670  -15.6980   17.9120 C.3   468  ASP468      0.1410
    118  CG        10.9210  -16.6240   16.7430 C.2   468  ASP468      0.3668
    119  OD1       11.3420  -17.7990   16.7410 O.co2 468  ASP468     -0.2456
    120  OD2       10.2240  -16.1590   15.8060 O.co2 468  ASP468     -0.2456
    121  N         13.8660  -10.6070   18.6370 N.3   472  HIS472     -0.1241
    122  CA        12.5680  -10.4090   17.9790 C.3   472  HIS472      0.1621
    123  C         11.5300   -9.6670   18.8280 C.2   472  HIS472      0.2264
    124  O         10.6140   -9.0540   18.2750 O.2   472  HIS472     -0.2867
    125  CB        11.9680  -11.7630   17.5920 C.3   472  HIS472      0.0745
    126  CG        12.5530  -12.3610   16.3490 C.ar  472  HIS472      0.0817
    127  ND1       13.9070  -12.5630   16.1820 N.ar  472  HIS472     -0.2268
    128  CD2       11.9610  -12.8310   15.2270 C.ar  472  HIS472      0.1154
    129  CE1       14.1250  -13.1090   14.9970 C.ar  472  HIS472      0.1986
    130  NE2       12.9620  -13.2920   14.4030 N.ar  472  HIS472     -0.2212
    131  N          0.7180  -11.4570   18.4770 N.3   519  ARG519     -0.1245
    132  CA         0.7340  -12.8350   17.9910 C.3   519  ARG519      0.1563
    133  C         -0.3580  -13.6570   18.6710 C.2   519  ARG519      0.2260
    134  O         -0.9810  -14.5220   18.0350 O.2   519  ARG519     -0.2867
    135  CB         2.1000  -13.4800   18.2380 C.3   519  ARG519      0.0307
    136  CG         2.2160  -14.8810   17.6470 C.3   519  ARG519      0.0489
    137  CD         3.4360  -15.6230   18.1570 C.3   519  ARG519      0.2205
    138  NE         3.7510  -16.8000   17.3360 N.pl3 519  ARG519     -0.0865
    139  CZ         4.2020  -17.9590   17.8130 C.cat 519  ARG519      0.5346
    140  NH1        4.3680  -18.1380   19.1200 N.pl3 519  ARG519      0.1354
    141  NH2        4.4690  -18.9590   16.9740 N.pl3 519  ARG519      0.1354
@<TRIPOS>BOND
     1    46    47    1
     2    23    22   ar
     3    22    21    1
     4    22    24   ar
     5    48    49    2
     6    48    47    1
     7    47    50    1
     8    21    18    1
     9    17    18    1
    10    17    14   am
    11    18    19    1
    12    52    50    1
    13    50    51    1
    14    13    12    1
    15    13    14    1
    16    13    16    1
    17    14    15    2
    18    53    54    1
    19    19    25   am
    20    19    20    2
    21    56    55    2
    22    55    54    1
    23    25    26    1
    24    39    33    1
    25    39    38    1
    26    54    57    1
    27    33    34    1
    28    38    37    1
    29    27    26    1
    30    27    28    2
    31    26    29    1
    32    37    34    1
    33    34    35    1
    34    57    58    1
    35    60    59   ar
    36    59    58    1
    37    59    61   ar
    38    29    30    1
    39    30    32    1
    40    30    31    1
    41    94    93    2
    42    35    40   am
    43    35    36    2
    44    40    41    1
    45    62    63    1
    46    98   100   ar
    47    98    96   ar
    48    66    63    1
    49    66    67    1
    50    66    68    1
    51    93    92    1
    52   100   101   ar
    53    63    64    1
    54    95    96    1
    55    95    92    1
    56    96    97   ar
    57    92    91    1
    58    41    42    1
    59    41    44    1
    60    42    43    2
    61    44    45    1
    62   101   102    1
    63   101    99   ar
    64    83    82    2
    65    64    65    2
    66    64    69   am
    67    97    99   ar
    68    69    70    1
    69    84    85    1
    70    84    81    1
    71    82    81    1
    72     4     3    2
    73    85    87   ar
    74    85    86   ar
    75    87    89   ar
    76    81    80    1
    77    79    78   ar
    78    79    77   ar
    79    78    76   ar
    80    77    75   ar
    81    89    90   ar
    82    86    88   ar
    83    72    71    2
    84    70    71    1
    85    70    73    1
    86    76    74   ar
    87    75    74   ar
    88    74    73    1
    89     3     2    1
    90    10     9    1
    91    90    88   ar
    92     5     2    1
    93     5     6    1
    94     2     1    1
    95     7     6    1
    96     7     8    1
    97   111   109   ar
    98   111   112   ar
    99     9     8    2
   100     9    11    1
   101   130   129   ar
   102   130   128   ar
   103   109   108   ar
   104   112   110   ar
   105   129   127   ar
   106   128   126   ar
   107   108   110   ar
   108   108   107    1
   109   120   118   ar
   110   103   104    1
   111   127   126   ar
   112   107   104    1
   113   126   125    1
   114   119   118   ar
   115   118   117    1
   116   141   139    1
   117   104   105    1
   118   138   139    2
   119   138   137    1
   120   125   122    1
   121   136   137    1
   122   136   135    1
   123   139   140    1
   124   105   106    2
   125   117   114    1
   126   122   121    1
   127   122   123    1
   128   132   135    1
   129   132   131    1
   130   132   133    1
   131   134   133    2
   132   124   123    2
   133   114   115    1
   134   114   113    1
   135   116   115    2
