@<TRIPOS>MOLECULE
tmp/2r8pB01.pdb
 153 145 0 0 0
SMALL
GASTEIGER

@<TRIPOS>ATOM
      1  N         25.1670   23.0670   -1.6260 N.3    25  HIS25      -0.1241
      2  CA        25.9120   22.0680   -2.3820 C.3    25  HIS25       0.1621
      3  C         25.9500   22.4060   -3.8750 C.2    25  HIS25       0.2264
      4  O         25.0000   22.1130   -4.6030 O.2    25  HIS25      -0.2867
      5  CB        25.2380   20.7040   -2.2000 C.3    25  HIS25       0.0745
      6  CG        25.1660   20.2510   -0.7760 C.ar   25  HIS25       0.0817
      7  ND1       24.2430   20.7500    0.1240 N.ar   25  HIS25      -0.2268
      8  CD2       25.9030   19.3390   -0.0990 C.ar   25  HIS25       0.1154
      9  CE1       24.4180   20.1610    1.2940 C.ar   25  HIS25       0.1986
     10  NE2       25.4260   19.3100    1.1890 N.ar   25  HIS25      -0.2212
     11  N         27.0600   18.7650   -7.2230 N.3    28  ALA28      -0.1245
     12  CA        26.2020   17.8930   -8.0230 C.3    28  ALA28       0.1562
     13  C         25.3680   18.6710   -9.0580 C.2    28  ALA28       0.2260
     14  O         25.2590   18.2220  -10.1940 O.2    28  ALA28      -0.2867
     15  CB        25.3090   16.9870   -7.1250 C.3    28  ALA28       0.0290
     16  N         19.9310   12.1250   -5.0980 N.3    63  ASN63      -0.1240
     17  CA        21.0460   12.8800   -4.5290 C.3    63  ASN63       0.1653
     18  C         20.5790   14.2970   -4.1600 C.2    63  ASN63       0.2266
     19  O         20.9750   15.2990   -4.7710 O.2    63  ASN63      -0.2867
     20  CB        22.2950   12.8570   -5.4430 C.3    63  ASN63       0.1155
     21  CG        21.9880   13.0710   -6.9440 C.2    63  ASN63       0.2627
     22  OD1       20.8460   13.1390   -7.3880 O.2    63  ASN63      -0.2716
     23  ND2       23.0580   13.1930   -7.7270 N.am   63  ASN63      -0.0877
     24  N         20.8920   16.5310   -1.8680 N.3    65  HIS65      -0.1241
     25  CA        21.7590   17.6490   -1.5000 C.3    65  HIS65       0.1621
     26  C         21.9310   18.6240   -2.6710 C.2    65  HIS65       0.2264
     27  O         22.0840   19.8250   -2.4550 O.2    65  HIS65      -0.2867
     28  CB        23.1090   17.1670   -0.9720 C.3    65  HIS65       0.0745
     29  CG        23.7960   16.1870   -1.8720 C.ar   65  HIS65       0.0817
     30  ND1       23.5140   14.8390   -1.8590 N.ar   65  HIS65      -0.2268
     31  CD2       24.7510   16.3640   -2.8150 C.ar   65  HIS65       0.1154
     32  CE1       24.2670   14.2250   -2.7570 C.ar   65  HIS65       0.1986
     33  NE2       25.0230   15.1290   -3.3540 N.ar   65  HIS65      -0.2212
     34  N         17.1740   20.7990    1.3590 N.3    99  HIS99      -0.1241
     35  CA        16.8860   19.5760    0.6030 C.3    99  HIS99       0.1621
     36  C         15.4350   19.6830    0.1290 C.2    99  HIS99       0.2264
     37  O         14.6130   20.2910    0.8310 O.2    99  HIS99      -0.2867
     38  CB        17.1390   18.3260    1.4700 C.3    99  HIS99       0.0745
     39  CG        18.5820   18.1400    1.8280 C.ar   99  HIS99       0.0817
     40  ND1       19.1680   18.7450    2.9220 N.ar   99  HIS99      -0.2268
     41  CD2       19.5700   17.4540    1.2050 C.ar   99  HIS99       0.1154
     42  CE1       20.4490   18.4220    2.9690 C.ar   99  HIS99       0.1986
     43  NE2       20.7210   17.6410    1.9380 N.ar   99  HIS99      -0.2212
     44  N         17.2300   13.9750    0.6430 N.3   113  GLY113     -0.1210
     45  CA        18.1970   14.3330    1.6830 C.3   113  GLY113      0.1940
     46  C         18.7610   13.0980    2.3810 C.2   113  GLY113      0.2454
     47  O         19.9850   12.9860    2.5560 O.2   113  GLY113     -0.2732
     48  N         17.8850   12.1840    2.8490 N.am  114  PRO114     -0.2717
     49  CA        18.3990   10.8890    3.3140 C.3   114  PRO114      0.1535
     50  C         18.7560   10.0150    2.1100 C.2   114  PRO114      0.2598
     51  O         17.8730    9.6090    1.3440 O.2   114  PRO114     -0.2715
     52  CB        17.2220   10.3130    4.1220 C.3   114  PRO114      0.0310
     53  CG        16.3240   11.5360    4.4160 C.3   114  PRO114      0.0237
     54  CD        16.4480   12.3160    3.1280 C.3   114  PRO114      0.0939
     55  N         20.0570    9.7810    1.9220 N.am  115  LEU115     -0.1978
     56  CA        20.5340    9.0840    0.7170 C.3   115  LEU115      0.1596
     57  C         19.8970    7.7160    0.5280 C.2   115  LEU115      0.2287
     58  O         19.6190    6.9940    1.5000 O.2   115  LEU115     -0.2864
     59  CB        22.0640    8.9760    0.7290 C.3   115  LEU115      0.0297
     60  CG        22.7940   10.3110    0.5690 C.3   115  LEU115      0.0022
     61  CD1       24.2290   10.1790    1.0540 C.3   115  LEU115      0.0001
     62  CD2       22.7550   10.7700   -0.8920 C.3   115  LEU115      0.0001
     63  N         23.5580    9.3280   -6.9690 N.3   153  GLY153     -0.1210
     64  CA        25.0240    9.4030   -6.9280 C.3   153  GLY153      0.1956
     65  C         25.6740    8.2510   -6.1790 C.2   153  GLY153      0.2612
     66  O         25.0380    7.2210   -5.8990 O.2   153  GLY153     -0.2717
     67  N         26.9480    8.4230   -5.8380 N.am  154  ASP154     -0.1959
     68  CA        27.6880    7.3700   -5.1390 C.3   154  ASP154      0.1840
     69  C         27.1000    7.0400   -3.7790 C.2   154  ASP154      0.2623
     70  O         27.1150    5.8790   -3.3670 O.2   154  ASP154     -0.2715
     71  CB        29.1500    7.7650   -4.9500 C.3   154  ASP154      0.1450
     72  CG        29.8620    7.9970   -6.2620 C.2   154  ASP154      0.3671
     73  OD1       29.9970    7.0310   -7.0500 O.co2 154  ASP154     -0.2456
     74  OD2       30.3040    9.1480   -6.4890 O.co2 154  ASP154     -0.2456
     75  N         26.5910    8.0620   -3.0910 N.am  155  GLY155     -0.1940
     76  CA        25.9840    7.8640   -1.7660 C.3   155  GLY155      0.2014
     77  C         24.7970    6.9170   -1.8200 C.2   155  GLY155      0.2639
     78  O         24.7020    5.9710   -1.0290 O.2   155  GLY155     -0.2714
     79  N         23.8870    7.1790   -2.7500 N.am  156  CYS156     -0.1967
     80  CA        22.7310    6.3270   -2.9410 C.3   156  CYS156      0.1712
     81  C         23.1590    4.9150   -3.3160 C.2   156  CYS156      0.2296
     82  O         22.5930    3.9590   -2.8150 O.2   156  CYS156     -0.2864
     83  CB        21.8110    6.9130   -4.0210 C.3   156  CYS156      0.0983
     84  SG        21.0560    8.5000   -3.5210 S.3   156  CYS156     -0.0798
     85  N         24.4890    2.9150   -0.2000 N.3   159  GLU159     -0.1245
     86  CA        23.4510    2.5740    0.7760 C.3   159  GLU159      0.1567
     87  C         22.7830    1.2360    0.4560 C.2   159  GLU159      0.2260
     88  O         22.4690    0.9420   -0.6940 O.2   159  GLU159     -0.2867
     89  CB        22.3860    3.6790    0.8350 C.3   159  GLU159      0.0388
     90  CG        22.8590    4.9360    1.5810 C.3   159  GLU159      0.1160
     91  CD        22.9560    4.7460    3.0960 C.2   159  GLU159      0.3649
     92  OE1       22.6490    3.6360    3.6190 O.co2 159  GLU159     -0.2457
     93  OE2       23.3200    5.7370    3.7700 O.co2 159  GLU159     -0.2457
     94  N         25.2040    9.5260  -11.3540 N.3   182  ASP182     -0.1239
     95  CA        26.1740   10.6020  -11.4350 C.3   182  ASP182      0.1674
     96  C         27.5260   10.0230  -11.0190 C.2   182  ASP182      0.2266
     97  O         27.8890   10.0250   -9.8400 O.2   182  ASP182     -0.2867
     98  CB        25.7380   11.7430  -10.5080 C.3   182  ASP182      0.1410
     99  CG        26.4960   13.0420  -10.7670 C.2   182  ASP182      0.3668
    100  OD1       26.9610   13.2510  -11.9100 O.co2 182  ASP182     -0.2456
    101  OD2       26.5860   13.8600   -9.8280 O.co2 182  ASP182     -0.2456
    102  N         30.8780   10.3620  -10.5990 N.3   184  ASN184     -0.1240
    103  CA        31.8760   11.4330  -10.5390 C.3   184  ASN184      0.1653
    104  C         33.1220   11.1230   -9.7020 C.2   184  ASN184      0.2266
    105  O         34.0290   11.9490   -9.6170 O.2   184  ASN184     -0.2867
    106  CB        31.2250   12.7820  -10.1450 C.3   184  ASN184      0.1155
    107  CG        30.6530   12.7770   -8.7380 C.2   184  ASN184      0.2627
    108  OD1       31.0000   11.9280   -7.9090 O.2   184  ASN184     -0.2716
    109  ND2       29.7700   13.7340   -8.4590 N.am  184  ASN184     -0.0877
    110  N         33.8010   10.9360   -6.5950 N.3   186  ILE186     -0.1231
    111  CA        34.0230   11.7730   -5.3970 C.3   186  ILE186      0.1692
    112  C         32.8980   11.6000   -4.3680 C.2   186  ILE186      0.2593
    113  O         31.7290   11.5980   -4.7360 O.2   186  ILE186     -0.2718
    114  CB        34.1020   13.2960   -5.8100 C.3   186  ILE186      0.0266
    115  CG1       35.3620   13.5770   -6.6440 C.3   186  ILE186      0.0019
    116  CG2       34.0230   14.2440   -4.5880 C.3   186  ILE186      0.0020
    117  CD1       36.6820   13.3680   -5.8990 C.3   186  ILE186      0.0001
    118  N         33.2570   11.4490   -3.0950 N.am  187  SER187     -0.1938
    119  CA        32.2980   11.5680   -1.9890 C.3   187  SER187      0.2055
    120  C         32.9450   12.4380   -0.9080 C.2   187  SER187      0.2642
    121  O         34.0040   13.0320   -1.1320 O.2   187  SER187     -0.2714
    122  CB        31.8420   10.1920   -1.4580 C.3   187  SER187      0.2130
    123  OG        32.8700    9.5080   -0.7680 O.3   187  SER187     -0.2179
    124  N         32.3110   12.5380    0.2560 N.am  188  ILE188     -0.1977
    125  CA        32.7710   13.5230    1.2280 C.3   188  ILE188      0.1596
    126  C         34.1900   13.2430    1.7310 C.2   188  ILE188      0.2287
    127  O         34.9800   14.1770    1.9180 O.2   188  ILE188     -0.2864
    128  CB        31.7370   13.7130    2.3740 C.3   188  ILE188      0.0276
    129  CG1       30.5670   14.5500    1.8540 C.3   188  ILE188      0.0022
    130  CG2       32.3740   14.4180    3.5840 C.3   188  ILE188      0.0022
    131  CD1       29.3850   14.6230    2.8240 C.3   188  ILE188      0.0001
    132  N         32.3610   16.5710  -10.8900 N.3   246  ILE246     -0.1245
    133  CA        31.6710   17.3120   -9.8330 C.3   246  ILE246      0.1561
    134  C         32.1440   18.7750   -9.9050 C.2   246  ILE246      0.2260
    135  O         33.3180   19.0400  -10.1290 O.2   246  ILE246     -0.2867
    136  CB        31.9200   16.6690   -8.4340 C.3   246  ILE246      0.0252
    137  CG1       30.9240   17.2190   -7.3970 C.3   246  ILE246      0.0019
    138  CG2       33.3790   16.8470   -7.9990 C.3   246  ILE246      0.0019
    139  CD1       31.0440   16.5780   -6.0300 C.3   246  ILE246      0.0001
    140  N         31.7330   19.6820   -3.1770 N.3   260  HIS260     -0.1226
    141  CA        30.5370   18.9120   -2.7770 C.3   260  HIS260      0.1752
    142  C         29.5010   19.7220   -1.9780 C.2   260  HIS260      0.2596
    143  O         28.3050   19.7400   -2.3300 O.2   260  HIS260     -0.2718
    144  CB        30.8980   17.6280   -1.9940 C.3   260  HIS260      0.0759
    145  CG        29.7430   17.0830   -1.2060 C.ar  260  HIS260      0.0818
    146  ND1       28.7150   16.3680   -1.7860 N.ar  260  HIS260     -0.2268
    147  CD2       29.4060   17.2300    0.0980 C.ar  260  HIS260      0.1154
    148  CE1       27.8130   16.0710   -0.8680 C.ar  260  HIS260      0.1986
    149  NE2       28.2080   16.5840    0.2840 N.ar  260  HIS260     -0.2212
    150  N         29.9620   20.3740   -0.9060 N.am  261  GLY261     -0.1957
    151  CA        29.0500   20.8010    0.1560 C.3   261  GLY261      0.1869
    152  C         29.2970   22.1230    0.8410 C.2   261  GLY261      0.2309
    153  O         28.8400   22.3340    1.9650 O.2   261  GLY261     -0.2863
@<TRIPOS>BOND
     1   100    99   ar
     2    95    94    1
     3    95    96    1
     4    95    98    1
     5    96    97    2
     6   132   133    1
     7    99    98    1
     8    99   101   ar
     9   102   103    1
    10   103   106    1
    11   103   104    1
    12    14    13    2
    13   106   107    1
    14   135   134    2
    15   134   133    1
    16   133   136    1
    17   104   105    2
    18    13    12    1
    19   107   109   am
    20   107   108    2
    21   136   138    1
    22   136   137    1
    23    12    11    1
    24    12    15    1
    25    23    21   am
    26   137   139    1
    27    22    21    2
    28    73    72   ar
    29    63    64    1
    30    21    20    1
    31    64    65    1
    32   115   117    1
    33   115   114    1
    34   110   111    1
    35    74    72   ar
    36    72    71    1
    37    65    66    2
    38    65    67   am
    39    67    68    1
    40   114   111    1
    41   114   116    1
    42    20    17    1
    43   111   112    1
    44    68    71    1
    45    68    69    1
    46    16    17    1
    47    19    18    2
    48   113   112    2
    49     4     3    2
    50    17    18    1
    51   112   118   am
    52    83    84    1
    53    83    80    1
    54     3     2    1
    55    69    70    2
    56    69    75   am
    57    33    31   ar
    58    33    32   ar
    59    81    80    1
    60    81    82    2
    61   140   141    1
    62   118   119    1
    63    75    76    1
    64    80    79    1
    65    31    29   ar
    66   141   144    1
    67   141   142    1
    68    32    30   ar
    69    79    77   am
    70    26    27    2
    71    26    25    1
    72     2     5    1
    73     2     1    1
    74   143   142    2
    75     5     6    1
    76   144   145    1
    77   119   122    1
    78   119   120    1
    79   142   150   am
    80    29    30   ar
    81    29    28    1
    82    24    25    1
    83    77    76    1
    84    77    78    2
    85   146   145   ar
    86   146   148   ar
    87    25    28    1
    88   122   123    1
    89   145   147   ar
    90   121   120    2
    91   120   124   am
    92   150   151    1
    93    62    60    1
    94   148   149   ar
    95     6     8   ar
    96     6     7   ar
    97    88    87    2
    98    85    86    1
    99     8    10   ar
   100   147   149   ar
   101     7     9   ar
   102    36    35    1
   103    36    37    2
   104   151   152    1
   105   124   125    1
   106    87    86    1
   107    57    56    1
   108    57    58    2
   109    60    59    1
   110    60    61    1
   111    35    34    1
   112    35    38    1
   113    44    45    1
   114    56    59    1
   115    56    55    1
   116    86    89    1
   117    89    90    1
   118   152   153    2
   119    10     9   ar
   120    41    39   ar
   121    41    43   ar
   122   125   126    1
   123   125   128    1
   124    51    50    2
   125    38    39    1
   126    90    91    1
   127    45    46    1
   128   126   127    2
   129    39    40   ar
   130   129   128    1
   131   129   131    1
   132    55    50   am
   133    43    42   ar
   134    50    49    1
   135   128   130    1
   136    46    47    2
   137    46    48   am
   138    48    54    1
   139    48    49    1
   140    40    42   ar
   141    91    92   ar
   142    91    93   ar
   143    54    53    1
   144    49    52    1
   145    52    53    1
