@<TRIPOS>MOLECULE
tmp/2r8qA00.pdb
 115 109 0 0 0
SMALL
GASTEIGER

@<TRIPOS>ATOM
      1  N         31.6160   -4.0280   23.6450 N.3    84  TYR84      -0.1227
      2  CA        30.8190   -3.0350   22.9460 C.3    84  TYR84       0.1736
      3  C         29.3140   -3.2600   22.9290 C.2    84  TYR84       0.2595
      4  O         28.5530   -2.3610   23.2850 O.2    84  TYR84      -0.2718
      5  CB        31.3140   -2.9010   21.5030 C.3    84  TYR84       0.0548
      6  CG        30.5950   -1.8330   20.7100 C.ar   84  TYR84      -0.0200
      7  CD1       30.8630   -0.4820   20.9200 C.ar   84  TYR84      -0.0009
      8  CD2       29.6340   -2.1750   19.7640 C.ar   84  TYR84      -0.0009
      9  CE1       30.1920    0.5030   20.2010 C.ar   84  TYR84       0.0417
     10  CE2       28.9560   -1.2050   19.0460 C.ar   84  TYR84       0.0417
     11  CZ        29.2390    0.1320   19.2640 C.ar   84  TYR84       0.1957
     12  OH        28.5790    1.0920   18.5350 O.3    84  TYR84      -0.2866
     13  N         28.8780   -4.4480   22.5190 N.am   85  HIS85      -0.1975
     14  CA        27.4480   -4.7170   22.4370 C.3    85  HIS85       0.1656
     15  C         26.7990   -5.0510   23.7650 C.2    85  HIS85       0.2291
     16  O         26.1130   -6.0660   23.9120 O.2    85  HIS85      -0.2864
     17  CB        27.1680   -5.8140   21.4080 C.3    85  HIS85       0.0771
     18  CG        27.3190   -5.3520   19.9910 C.ar   85  HIS85       0.0820
     19  ND1       28.4500   -5.5930   19.2420 N.ar   85  HIS85      -0.2267
     20  CD2       26.4940   -4.6210   19.2020 C.ar   85  HIS85       0.1154
     21  CE1       28.3170   -5.0290   18.0530 C.ar   85  HIS85       0.1986
     22  NE2       27.1400   -4.4320   18.0040 N.ar   85  HIS85      -0.2212
     23  N         24.2950   -5.0730    8.9850 N.3   201  MET201     -0.1245
     24  CA        25.1470   -4.3520    8.0430 C.3   201  MET201      0.1570
     25  C         25.3680   -5.0380    6.7020 C.2   201  MET201      0.2261
     26  O         25.8510   -4.4110    5.7560 O.2   201  MET201     -0.2867
     27  CB        26.4930   -4.0230    8.6950 C.3   201  MET201      0.0387
     28  CG        26.4240   -2.8870    9.7110 C.3   201  MET201      0.0595
     29  SD        25.8050   -1.3230    9.0150 S.3   201  MET201     -0.1393
     30  CE        27.2480   -0.7190    8.1720 C.3   201  MET201      0.0692
     31  N         22.8730    3.4450   14.9720 N.3   239  ASP239     -0.1225
     32  CA        23.7340    2.2890   15.1710 C.3   239  ASP239      0.1805
     33  C         25.1930    2.5500   14.7820 C.2   239  ASP239      0.2597
     34  O         26.1090    2.0190   15.4170 O.2   239  ASP239     -0.2718
     35  CB        23.1680    1.1010   14.3860 C.3   239  ASP239      0.1424
     36  CG        23.4550   -0.2290   15.0490 C.2   239  ASP239      0.3668
     37  OD1       23.7740   -0.2540   16.2610 O.co2 239  ASP239     -0.2456
     38  OD2       23.3430   -1.2610   14.3530 O.co2 239  ASP239     -0.2456
     39  N         25.4180    3.3710   13.7580 N.am  240  VAL240     -0.1980
     40  CA        26.7860    3.6850   13.3340 C.3   240  VAL240      0.1595
     41  C         27.1580    5.1350   13.6390 C.2   240  VAL240      0.2287
     42  O         28.0250    5.7190   12.9850 O.2   240  VAL240     -0.2864
     43  CB        26.9940    3.4220   11.8180 C.3   240  VAL240      0.0276
     44  CG1       26.7710    1.9490   11.5180 C.3   240  VAL240      0.0022
     45  CG2       26.0580    4.2890   10.9880 C.3   240  VAL240      0.0022
     46  N         28.7010    6.3450   16.3130 N.3   242  ASN242     -0.1225
     47  CA        29.9020    6.5630   17.1190 C.3   242  ASN242      0.1785
     48  C         30.8650    7.5600   16.4720 C.2   242  ASN242      0.2597
     49  O         31.4350    8.4080   17.1550 O.2   242  ASN242     -0.2718
     50  CB        30.6470    5.2460   17.3570 C.3   242  ASN242      0.1169
     51  CG        29.9190    4.3060   18.3120 C.2   242  ASN242      0.2627
     52  OD1       30.3020    3.1450   18.4500 O.2   242  ASN242     -0.2716
     53  ND2       28.8800    4.8020   18.9770 N.am  242  ASN242     -0.0877
     54  N         31.0380    7.4590   15.1570 N.am  243  VAL243     -0.1980
     55  CA        31.9620    8.3350   14.4400 C.3   243  VAL243      0.1595
     56  C         31.5100    9.7810   14.2860 C.2   243  VAL243      0.2287
     57  O         32.2830   10.6260   13.8310 O.2   243  VAL243     -0.2864
     58  CB        32.2810    7.7780   13.0350 C.3   243  VAL243      0.0276
     59  CG1       32.9840    6.4360   13.1580 C.3   243  VAL243      0.0022
     60  CG2       31.0030    7.6520   12.2210 C.3   243  VAL243      0.0022
     61  N         35.3550    3.7990   19.8810 N.3   254  ALA254     -0.1245
     62  CA        36.2290    3.0470   18.9820 C.3   254  ALA254      0.1562
     63  C         37.0890    2.0370   19.7350 C.2   254  ALA254      0.2260
     64  O         37.3690    0.9460   19.2280 O.2   254  ALA254     -0.2867
     65  CB        37.1130    4.0050   18.1820 C.3   254  ALA254      0.0290
     66  N         34.7670   -0.9360   20.5140 N.3   257  VAL257     -0.1245
     67  CA        34.5110   -1.7410   19.3200 C.3   257  VAL257      0.1561
     68  C         35.7480   -2.5770   19.0070 C.2   257  VAL257      0.2260
     69  O         35.6550   -3.7810   18.7610 O.2   257  VAL257     -0.2867
     70  CB        34.2040   -0.8640   18.0800 C.3   257  VAL257      0.0252
     71  CG1       34.1050   -1.7420   16.8350 C.3   257  VAL257      0.0019
     72  CG2       32.9100   -0.1060   18.2820 C.3   257  VAL257      0.0019
     73  N         36.1120   -6.6910   18.7710 N.3   261  PHE261     -0.1241
     74  CA        36.5610   -7.3240   17.5360 C.3   261  PHE261      0.1605
     75  C         37.7640   -8.2280   17.8190 C.2   261  PHE261      0.2264
     76  O         37.8220   -9.3650   17.3450 O.2   261  PHE261     -0.2867
     77  CB        36.9560   -6.2650   16.4960 C.3   261  PHE261      0.0534
     78  CG        35.7900   -5.6160   15.7930 C.ar  261  PHE261     -0.0203
     79  CD1       34.4760   -5.9860   16.0700 C.ar  261  PHE261     -0.0042
     80  CD2       36.0170   -4.6340   14.8350 C.ar  261  PHE261     -0.0042
     81  CE1       33.4070   -5.3860   15.4020 C.ar  261  PHE261     -0.0003
     82  CE2       34.9570   -4.0290   14.1640 C.ar  261  PHE261     -0.0003
     83  CZ        33.6490   -4.4070   14.4480 C.ar  261  PHE261     -0.0000
     84  N         41.1080   -6.6060   10.8060 N.3   278  MET278     -0.1245
     85  CA        40.3530   -5.7820   11.7430 C.3   278  MET278      0.1570
     86  C         40.0770   -6.4680   13.0820 C.2   278  MET278      0.2261
     87  O         39.8160   -5.8030   14.0890 O.2   278  MET278     -0.2867
     88  CB        39.0310   -5.3770   11.0860 C.3   278  MET278      0.0387
     89  CG        38.1750   -4.4230   11.8890 C.3   278  MET278      0.0595
     90  SD        36.6360   -4.0750   11.0220 S.3   278  MET278     -0.1393
     91  CE        37.1340   -2.6960    9.9870 C.3   278  MET278      0.0692
     92  N         41.8340    2.4040   11.4200 N.3   290  GLY290     -0.1210
     93  CA        40.5560    1.7180   11.3510 C.3   290  GLY290      0.1956
     94  C         39.3690    2.6620   11.2940 C.2   290  GLY290      0.2611
     95  O         38.3880    2.3990   10.5940 O.2   290  GLY290     -0.2717
     96  N         39.4520    3.7650   12.0310 N.am  291  GLN291     -0.1979
     97  CA        38.3710    4.7420   12.0500 C.3   291  GLN291      0.1601
     98  C         38.2860    5.4770   10.7190 C.2   291  GLN291      0.2287
     99  O         37.1970    5.7490   10.2200 O.2   291  GLN291     -0.2864
    100  CB        38.5770    5.7320   13.1980 C.3   291  GLN291      0.0394
    101  CG        38.3590    5.1110   14.5680 C.3   291  GLN291      0.0908
    102  CD        36.9170    4.6890   14.7840 C.2   291  GLN291      0.2608
    103  OE1       36.0250    5.5260   14.9100 O.2   291  GLN291     -0.2717
    104  NE2       36.6820    3.3840   14.8160 N.am  291  GLN291     -0.0878
    105  N         36.6460    3.1390    8.2310 N.3   294  PHE294     -0.1241
    106  CA        35.2100    3.0240    8.4640 C.3   294  PHE294      0.1605
    107  C         34.4810    4.2970    8.0330 C.2   294  PHE294      0.2264
    108  O         33.3950    4.2380    7.4540 O.2   294  PHE294     -0.2867
    109  CB        34.9340    2.7380    9.9410 C.3   294  PHE294      0.0534
    110  CG        33.4910    2.4580   10.2430 C.ar  294  PHE294     -0.0203
    111  CD1       32.8460    1.3680    9.6660 C.ar  294  PHE294     -0.0042
    112  CD2       32.7730    3.2830   11.1010 C.ar  294  PHE294     -0.0042
    113  CE1       31.5050    1.1030    9.9410 C.ar  294  PHE294     -0.0003
    114  CE2       31.4330    3.0260   11.3820 C.ar  294  PHE294     -0.0003
    115  CZ        30.7980    1.9340   10.8000 C.ar  294  PHE294     -0.0000
@<TRIPOS>BOND
     1    26    25    2
     2    25    24    1
     3   108   107    2
     4   107   106    1
     5    24    27    1
     6    24    23    1
     7    30    29    1
     8   105   106    1
     9   106   109    1
    10    27    28    1
    11    29    28    1
    12   111   113   ar
    13   111   110   ar
    14   109   110    1
    15   113   115   ar
    16    91    90    1
    17    99    98    2
    18   110   112   ar
    19    95    94    2
    20    98    97    1
    21   115   114   ar
    22    84    85    1
    23    45    43    1
    24    90    89    1
    25    88    85    1
    26    88    89    1
    27   112   114   ar
    28    94    93    1
    29    94    96   am
    30    93    92    1
    31    44    43    1
    32    85    86    1
    33    43    40    1
    34    96    97    1
    35    97   100    1
    36    60    58    1
    37    42    41    2
    38    58    59    1
    39    58    55    1
    40    86    87    2
    41   100   101    1
    42    40    41    1
    43    40    39    1
    44    39    33   am
    45    57    56    2
    46    82    83   ar
    47    82    80   ar
    48    56    55    1
    49    38    36   ar
    50    35    36    1
    51    35    32    1
    52    55    54    1
    53    83    81   ar
    54   101   102    1
    55    33    32    1
    56    33    34    2
    57   102   104   am
    58   102   103    2
    59    80    78   ar
    60    31    32    1
    61    36    37   ar
    62    54    48   am
    63    81    79   ar
    64    78    79   ar
    65    78    77    1
    66    46    47    1
    67    48    47    1
    68    48    49    2
    69    77    74    1
    70    71    70    1
    71    47    50    1
    72    76    75    2
    73    50    51    1
    74    74    75    1
    75    74    73    1
    76    22    21   ar
    77    22    20   ar
    78    21    19   ar
    79    70    72    1
    80    70    67    1
    81    65    62    1
    82    51    52    2
    83    51    53   am
    84    12    11    1
    85    69    68    2
    86    62    63    1
    87    62    61    1
    88    68    67    1
    89    10    11   ar
    90    10     8   ar
    91    20    18   ar
    92    64    63    2
    93    19    18   ar
    94    11     9   ar
    95    67    66    1
    96     8     6   ar
    97    18    17    1
    98     9     7   ar
    99     6     7   ar
   100     6     5    1
   101    17    14    1
   102     5     2    1
   103    14    13    1
   104    14    15    1
   105    13     3   am
   106     3     2    1
   107     3     4    2
   108     2     1    1
   109    15    16    2
