@<TRIPOS>MOLECULE
tmp/2r9cA00.pdb
 188 182 0 0 0
SMALL
GASTEIGER

@<TRIPOS>ATOM
      1  N         -2.7960    0.6500   16.4440 N.3    77  GLN77      -0.1231
      2  CA        -3.1800    2.0160   16.6440 C.3    77  GLN77       0.1698
      3  C         -1.9710    2.9080   16.9860 C.2    77  GLN77       0.2593
      4  O         -1.0640    2.5080   17.7280 O.2    77  GLN77      -0.2718
      5  CB        -4.2210    2.1030   17.7540 C.3    77  GLN77       0.0381
      6  CG        -4.7530    3.5080   17.9330 C.3    77  GLN77       0.0905
      7  CD        -6.0180    3.5810   18.7840 C.2    77  GLN77       0.2608
      8  OE1       -6.4850    2.5790   19.3400 O.2    77  GLN77      -0.2717
      9  NE2       -6.5730    4.7760   18.8960 N.am   77  GLN77      -0.0878
     10  N         -1.9920    4.1190   16.4450 N.am   78  GLY78      -0.1942
     11  CA        -1.0270    5.1590   16.8560 C.3    78  GLY78       0.2014
     12  C         -1.6000    6.1810   17.7920 C.2    78  GLY78       0.2639
     13  O         -2.5560    5.9250   18.5230 O.2    78  GLY78      -0.2714
     14  N         -1.0280    7.3760   17.7550 N.am   79  ALA79      -0.1963
     15  CA        -1.3010    8.3680   18.7690 C.3    79  ALA79       0.1728
     16  C         -2.4890    9.2390   18.3810 C.2    79  ALA79       0.2616
     17  O         -2.3350   10.4220   18.0190 O.2    79  ALA79      -0.2715
     18  CB        -0.0070    9.2220   19.0080 C.3    79  ALA79       0.0334
     19  N         -3.6960    8.6540   18.4320 N.am   80  LEU80      -0.1963
     20  CA        -4.8870    9.3800   18.0000 C.3    80  LEU80       0.1728
     21  C         -6.0630    8.6940   18.6580 C.2    80  LEU80       0.2616
     22  O         -5.9690    7.4970   18.9320 O.2    80  LEU80      -0.2715
     23  CB        -5.0150    9.3020   16.4530 C.3    80  LEU80       0.0311
     24  CG        -6.1100   10.1230   15.7730 C.3    80  LEU80       0.0022
     25  CD1       -5.8650   11.6080   16.0200 C.3    80  LEU80       0.0001
     26  CD2       -6.1620    9.7760   14.2220 C.3    80  LEU80       0.0001
     27  N         -7.1650    9.4100   18.8850 N.am   81  GLY81      -0.1955
     28  CA        -8.3510    8.7860   19.4790 C.3    81  GLY81       0.1869
     29  C         -9.2580    8.0360   18.5250 C.2    81  GLY81       0.2309
     30  O        -10.4840    8.0630   18.6950 O.2    81  GLY81      -0.2863
     31  N         -9.7370    4.6860   17.9270 N.3    83  CYS83      -0.1221
     32  CA        -9.8780    3.2670   18.1900 C.3    83  CYS83       0.1808
     33  C        -11.1400    2.6970   17.5210 C.2    83  CYS83       0.2601
     34  O        -11.1290    1.5640   17.0290 O.2    83  CYS83      -0.2717
     35  CB        -9.9280    2.9950   19.7070 C.3    83  CYS83       0.0970
     36  SG       -11.2190    3.8700   20.5770 S.3    83  CYS83      -0.0800
     37  N        -12.2210    3.4760   17.5290 N.am   84  TRP84      -0.1976
     38  CA       -13.5070    3.0810   16.9240 C.3    84  TRP84       0.1640
     39  C        -13.3620    2.7800   15.4410 C.2    84  TRP84       0.2290
     40  O        -13.9030    1.7910   14.9110 O.2    84  TRP84      -0.2864
     41  CB       -14.5610    4.1970   17.1930 C.3    84  TRP84       0.0576
     42  CG       -14.1230    5.5770   16.6950 C.ar   84  TRP84       0.0006
     43  CD1      -13.2970    6.4850   17.3380 C.ar   84  TRP84       0.0946
     44  CD2      -14.4420    6.1580   15.4160 C.ar   84  TRP84       0.0152
     45  NE1      -13.1510    7.6250   16.5480 N.ar   84  TRP84      -0.2442
     46  CE2      -13.8260    7.4410   15.3670 C.ar   84  TRP84       0.0810
     47  CE3      -15.2330    5.7430   14.3330 C.ar   84  TRP84       0.0012
     48  CZ2      -13.9300    8.2910   14.2370 C.ar   84  TRP84       0.0191
     49  CZ3      -15.3580    6.6140   13.1980 C.ar   84  TRP84       0.0001
     50  CH2      -14.7150    7.8630   13.1780 C.ar   84  TRP84       0.0015
     51  N        -10.7840   11.8550   16.5400 N.3   174  SER174     -0.1202
     52  CA       -10.5470   11.4900   17.9440 C.3   174  SER174      0.2020
     53  C        -11.8880   11.4350   18.7110 C.2   174  SER174      0.2619
     54  O        -12.5980   12.4310   18.7820 O.2   174  SER174     -0.2717
     55  CB        -9.5400   12.4240   18.5960 C.3   174  SER174      0.2103
     56  OG        -8.2220   12.1460   18.1210 O.3   174  SER174     -0.2182
     57  N        -12.2580   10.2490   19.1950 N.am  175  GLY175     -0.1942
     58  CA       -13.5520   10.0820   19.8840 C.3   175  GLY175      0.2014
     59  C        -14.6130    9.7430   18.8610 C.2   175  GLY175      0.2639
     60  O        -14.9120   10.5380   17.9760 O.2   175  GLY175     -0.2714
     61  N        -15.1950    8.5580   18.9420 N.am  176  GLY176     -0.1939
     62  CA       -16.1760    8.2150   17.9310 C.3   176  GLY176      0.2014
     63  C        -16.9340    6.9480   18.1940 C.2   176  GLY176      0.2639
     64  O        -16.8220    6.3220   19.2780 O.2   176  GLY176     -0.2714
     65  N        -17.6940    6.5500   17.1810 N.am  177  CYS177     -0.1953
     66  CA       -18.6480    5.4530   17.3030 C.3   177  CYS177      0.1843
     67  C        -18.2950    4.3710   16.2880 C.2   177  CYS177      0.2626
     68  O        -18.2740    4.6160   15.0720 O.2   177  CYS177     -0.2714
     69  CB       -20.0620    5.9490   17.0280 C.3   177  CYS177      0.0997
     70  SG       -21.2950    4.6590   17.0850 S.3   177  CYS177     -0.0797
     71  N        -18.0120    3.1800   16.7880 N.am  178  THR178     -0.1950
     72  CA       -17.6170    2.0540   15.9220 C.3   178  THR178      0.1897
     73  C        -18.6330    1.8360   14.8030 C.2   178  THR178      0.2313
     74  O        -18.2570    1.6690   13.6520 O.2   178  THR178     -0.2863
     75  CB       -17.4150    0.7700   16.7460 C.3   178  THR178      0.1794
     76  OG1      -16.5580    1.0860   17.8620 O.3   178  THR178     -0.2208
     77  CG2      -16.7400   -0.3130   15.8710 C.3   178  THR178      0.0378
     78  N        -20.4800    3.9260   13.2520 N.3   180  GLU180     -0.1245
     79  CA       -20.3280    4.9010   12.1650 C.3   180  GLU180      0.1567
     80  C        -19.2660    4.4590   11.1510 C.2   180  GLU180      0.2260
     81  O        -19.5130    4.5120    9.9430 O.2   180  GLU180     -0.2867
     82  CB       -20.1010    6.3060   12.7100 C.3   180  GLU180      0.0388
     83  CG       -21.3070    6.7970   13.5160 C.3   180  GLU180      0.1160
     84  CD       -21.2970    8.2870   13.7960 C.2   180  GLU180      0.3649
     85  OE1      -20.2070    8.8620   13.9070 O.co2 180  GLU180     -0.2457
     86  OE2      -22.3960    8.8810   13.9130 O.co2 180  GLU180     -0.2457
     87  N        -17.1600   -4.2670   20.2740 N.3   218  CYS218     -0.1221
     88  CA       -17.6900   -4.2010   21.6420 C.3   218  CYS218      0.1808
     89  C        -16.9090   -3.1890   22.4790 C.2   218  CYS218      0.2602
     90  O        -15.7900   -2.8000   22.1140 O.2   218  CYS218     -0.2717
     91  CB       -17.6580   -5.5840   22.3030 C.3   218  CYS218      0.0970
     92  SG       -16.0350   -6.3880   22.2780 S.3   218  CYS218     -0.0800
     93  N        -17.4880   -2.7930   23.6080 N.am  219  SER219     -0.1938
     94  CA       -16.8340   -1.8150   24.4760 C.3   219  SER219      0.2055
     95  C        -17.3750   -1.9320   25.9000 C.2   219  SER219      0.2643
     96  O        -18.4240   -2.5570   26.1280 O.2   219  SER219     -0.2714
     97  CB       -17.0600   -0.3920   23.9580 C.3   219  SER219      0.2130
     98  OG       -18.4420   -0.0900   23.8530 O.3   219  SER219     -0.2179
     99  N        -16.6470   -1.3120   26.8240 N.am  220  ILE220     -0.1963
    100  CA       -17.0040   -1.2950   28.2590 C.3   220  ILE220      0.1727
    101  C        -17.2380    0.1580   28.6080 C.2   220  ILE220      0.2616
    102  O        -16.3460    0.9960   28.4600 O.2   220  ILE220     -0.2715
    103  CB       -15.8410   -1.8070   29.1250 C.3   220  ILE220      0.0290
    104  CG1      -15.3580   -3.1590   28.6120 C.3   220  ILE220      0.0022
    105  CG2      -16.2600   -1.8790   30.6330 C.3   220  ILE220      0.0023
    106  CD1      -14.0700   -3.6160   29.1980 C.3   220  ILE220      0.0001
    107  N        -18.4290    0.4630   29.0740 N.am  221  ASN221     -0.1972
    108  CA       -18.7250    1.8380   29.3930 C.3   221  ASN221      0.1688
    109  C        -17.9210    2.3250   30.6250 C.2   221  ASN221      0.2292
    110  O        -17.7120    1.5690   31.5640 O.2   221  ASN221     -0.2864
    111  CB       -20.2050    2.0100   29.6250 C.3   221  ASN221      0.1181
    112  CG       -20.5630    3.4300   29.9300 C.2   221  ASN221      0.2629
    113  OD1      -20.0720    4.3620   29.2710 O.2   221  ASN221     -0.2716
    114  ND2      -21.3890    3.6190   30.9450 N.am  221  ASN221     -0.0877
    115  N         -9.5830   -2.4660   28.6180 N.3   237  VAL237     -0.1245
    116  CA        -9.6160   -0.9990   28.5090 C.3   237  VAL237      0.1561
    117  C        -11.0500   -0.4830   28.3950 C.2   237  VAL237      0.2260
    118  O        -11.8010   -0.8970   27.5030 O.2   237  VAL237     -0.2867
    119  CB        -8.7870   -0.5120   27.2670 C.3   237  VAL237      0.0252
    120  CG1       -8.5880    1.0260   27.2860 C.3   237  VAL237      0.0019
    121  CG2       -7.4700   -1.2570   27.1800 C.3   237  VAL237      0.0019
    122  N        -14.0710    2.4080   27.7750 N.3   239  GLY239     -0.1210
    123  CA       -14.3330    3.5060   26.8360 C.3   239  GLY239      0.1956
    124  C        -13.5390    3.3400   25.5460 C.2   239  GLY239      0.2612
    125  O        -13.1740    4.3400   24.8990 O.2   239  GLY239     -0.2717
    126  N        -13.3000    2.0890   25.1660 N.am  240  HIS240     -0.1961
    127  CA       -12.3630    1.7380   24.0800 C.3   240  HIS240      0.1787
    128  C        -12.9440    0.6740   23.1340 C.2   240  HIS240      0.2620
    129  O        -13.4510   -0.3610   23.5800 O.2   240  HIS240     -0.2715
    130  CB       -11.0730    1.2060   24.7180 C.3   240  HIS240      0.0785
    131  CG        -9.9950    0.8480   23.7470 C.ar  240  HIS240      0.0821
    132  ND1       -9.4480    1.7530   22.8600 N.ar  240  HIS240     -0.2267
    133  CD2       -9.3220   -0.3120   23.5640 C.ar  240  HIS240      0.1154
    134  CE1       -8.5000    1.1580   22.1540 C.ar  240  HIS240      0.1986
    135  NE2       -8.4060   -0.0950   22.5650 N.ar  240  HIS240     -0.2212
    136  N        -12.8680    0.9190   21.8280 N.am  241  ALA241     -0.1977
    137  CA       -13.4670   -0.0240   20.8550 C.3   241  ALA241      0.1597
    138  C        -12.6130   -1.2620   20.6530 C.2   241  ALA241      0.2287
    139  O        -11.4220   -1.1440   20.3130 O.2   241  ALA241     -0.2864
    140  CB       -13.6420    0.6870   19.5150 C.3   241  ALA241      0.0319
    141  N         -5.0350   -1.6250   19.5570 N.3   266  TRP266     -0.1241
    142  CA        -3.6410   -1.3040   19.8890 C.3   266  TRP266      0.1605
    143  C         -2.6620   -2.3470   19.3950 C.2   266  TRP266      0.2264
    144  O         -1.4670   -2.0530   19.2610 O.2   266  TRP266     -0.2867
    145  CB        -3.4450   -1.1630   21.4050 C.3   266  TRP266      0.0550
    146  CG        -4.1860   -0.0700   22.0270 C.ar  266  TRP266      0.0003
    147  CD1       -4.8810    0.9400   21.3850 C.ar  266  TRP266      0.0946
    148  CD2       -4.3110    0.1880   23.4370 C.ar  266  TRP266      0.0152
    149  NE1       -5.4470    1.7860   22.3290 N.ar  266  TRP266     -0.2442
    150  CE2       -5.1100    1.3470   23.5840 C.ar  266  TRP266      0.0810
    151  CE3       -3.8420   -0.4690   24.5920 C.ar  266  TRP266      0.0012
    152  CZ2       -5.4530    1.8750   24.8440 C.ar  266  TRP266      0.0191
    153  CZ3       -4.1660    0.0700   25.8520 C.ar  266  TRP266      0.0001
    154  CH2       -4.9620    1.2210   25.9630 C.ar  266  TRP266      0.0015
    155  N         -1.9550   -4.8270   21.2170 N.3   268  GLU268     -0.1231
    156  CA        -1.3420   -5.2090   22.5070 C.3   268  GLU268      0.1699
    157  C         -2.3320   -4.8980   23.6130 C.2   268  GLU268      0.2592
    158  O         -3.3280   -4.2360   23.3720 O.2   268  GLU268     -0.2718
    159  CB        -0.0280   -4.4290   22.7290 C.3   268  GLU268      0.0402
    160  CG        -0.1910   -2.9290   22.5890 C.3   268  GLU268      0.1161
    161  CD         1.0350   -2.1470   23.0270 C.2   268  GLU268      0.3649
    162  OE1        0.8710   -0.9980   23.4650 O.co2 268  GLU268     -0.2457
    163  OE2        2.1500   -2.6860   22.8940 O.co2 268  GLU268     -0.2457
    164  N         -2.0260   -5.3500   24.8430 N.am  269  VAL269     -0.1980
    165  CA        -2.8400   -5.1330   26.0590 C.3   269  VAL269      0.1595
    166  C         -4.1240   -5.9550   26.0210 C.2   269  VAL269      0.2287
    167  O         -5.1300   -5.5380   25.4510 O.2   269  VAL269     -0.2864
    168  CB        -3.1400   -3.6510   26.4180 C.3   269  VAL269      0.0276
    169  CG1       -3.8680   -3.5760   27.7760 C.3   269  VAL269      0.0022
    170  CG2       -1.8200   -2.8350   26.4770 C.3   269  VAL269      0.0022
    171  N        -21.4970   -3.2110   25.8590 N.3   315  LYS315     -0.1245
    172  CA       -22.1350   -2.9150   24.5710 C.3   315  LYS315      0.1561
    173  C        -21.5470   -3.7800   23.4560 C.2   315  LYS315      0.2260
    174  O        -20.3380   -3.9420   23.3770 O.2   315  LYS315     -0.2867
    175  CB       -21.9070   -1.4110   24.2570 C.3   315  LYS315      0.0271
    176  CG       -22.5080   -0.9190   22.9490 C.3   315  LYS315      0.0035
    177  CD       -22.3630    0.6090   22.8630 C.3   315  LYS315      0.0206
    178  CE       -23.0560    1.0900   21.6530 C.3   315  LYS315      0.1093
    179  NZ       -22.9710    2.5450   21.5590 N.3   315  LYS315     -0.1314
    180  N        -21.8690   -4.0510   19.1790 N.3   317  GLU317     -0.1245
    181  CA       -22.3770   -3.4390   17.9610 C.3   317  GLU317      0.1567
    182  C        -22.2320   -4.4250   16.8020 C.2   317  GLU317      0.2260
    183  O        -21.2040   -5.0970   16.6620 O.2   317  GLU317     -0.2867
    184  CB       -21.6230   -2.1200   17.6820 C.3   317  GLU317      0.0388
    185  CG       -21.7820   -1.1010   18.8190 C.3   317  GLU317      0.1160
    186  CD       -21.0220    0.1790   18.6090 C.2   317  GLU317      0.3649
    187  OE1      -20.2350    0.5450   19.5050 O.co2 317  GLU317     -0.2457
    188  OE2      -21.2220    0.8240   17.5490 O.co2 317  GLU317     -0.2457
@<TRIPOS>BOND
     1    81    80    2
     2    80    79    1
     3    79    82    1
     4    79    78    1
     5    82    83    1
     6    50    49   ar
     7    50    48   ar
     8    49    47   ar
     9    83    84    1
    10    74    73    2
    11    84    85   ar
    12    84    86   ar
    13    26    24    1
    14    48    46   ar
    15    47    44   ar
    16    73    72    1
    17    40    39    2
    18    68    67    2
    19    46    44   ar
    20    46    45   ar
    21    44    42   ar
    22    39    38    1
    23    24    25    1
    24    24    23    1
    25    77    75    1
    26    72    75    1
    27    72    71    1
    28    67    71   am
    29    67    66    1
    30     1     2    1
    31    10    11    1
    32    10     3   am
    33    23    20    1
    34    51    52    1
    35    45    43   ar
    36     2     3    1
    37     2     5    1
    38   183   182    2
    39    42    41    1
    40    42    43   ar
    41    75    76    1
    42   182   181    1
    43    11    12    1
    44    38    41    1
    45    38    37    1
    46     3     4    2
    47    69    70    1
    48    69    66    1
    49    34    33    2
    50    65    66    1
    51    65    63   am
    52    33    37   am
    53    33    32    1
    54   188   186   ar
    55   184   181    1
    56   184   185    1
    57     5     6    1
    58    14    12   am
    59    14    15    1
    60    12    13    2
    61    31    32    1
    62    62    63    1
    63    62    61    1
    64     6     7    1
    65    52    55    1
    66    52    53    1
    67   181   180    1
    68    60    59    2
    69    20    19    1
    70    20    21    1
    71    17    16    2
    72    56    55    1
    73    32    35    1
    74    63    64    2
    75    16    19   am
    76    16    15    1
    77    29    30    2
    78    29    28    1
    79   186   185    1
    80   186   187   ar
    81    21    27   am
    82    21    22    2
    83    53    54    2
    84    53    57   am
    85    15    18    1
    86     7     9   am
    87     7     8    2
    88    59    61   am
    89    59    58    1
    90    27    28    1
    91    57    58    1
    92   144   143    2
    93   143   142    1
    94   140   137    1
    95   141   142    1
    96    35    36    1
    97   142   145    1
    98    87    88    1
    99   139   138    2
   100   138   137    1
   101   137   136    1
   102   155   156    1
   103   147   146   ar
   104   147   149   ar
   105   145   146    1
   106   179   178    1
   107    88    91    1
   108    88    89    1
   109   178   177    1
   110   136   128   am
   111   146   148   ar
   112    90    89    2
   113   134   135   ar
   114   134   132   ar
   115    92    91    1
   116   149   150   ar
   117    89    93   am
   118   156   159    1
   119   156   157    1
   120   135   133   ar
   121   160   159    1
   122   160   161    1
   123   132   131   ar
   124   177   176    1
   125   163   161   ar
   126   176   175    1
   127   161   162   ar
   128   128   129    2
   129   128   127    1
   130   158   157    2
   131   174   173    2
   132   148   150   ar
   133   148   151   ar
   134   173   172    1
   135   133   131   ar
   136   150   152   ar
   137    93    94    1
   138   157   164   am
   139   131   130    1
   140    98    97    1
   141    97    94    1
   142   127   130    1
   143   127   126    1
   144   175   172    1
   145    94    95    1
   146   172   171    1
   147   151   153   ar
   148   164   165    1
   149   152   154   ar
   150   125   124    2
   151   126   124   am
   152   167   166    2
   153   124   123    1
   154   153   154   ar
   155    95    96    2
   156    95    99   am
   157   166   165    1
   158   165   168    1
   159   168   170    1
   160   168   169    1
   161    99   100    1
   162   123   122    1
   163   121   119    1
   164   119   120    1
   165   119   116    1
   166   118   117    2
   167   100   101    1
   168   100   103    1
   169   117   116    1
   170   102   101    2
   171   116   115    1
   172   101   107   am
   173   104   103    1
   174   104   106    1
   175   107   108    1
   176   103   105    1
   177   113   112    2
   178   108   111    1
   179   108   109    1
   180   111   112    1
   181   112   114   am
   182   109   110    2
