@<TRIPOS>MOLECULE
tmp/2r9eC00.pdb
 244 237 0 0 0
SMALL
GASTEIGER

@<TRIPOS>ATOM
      1  N         -1.5800   55.0070  -11.8890 N.3     7  GLU7       -0.1245
      2  CA        -1.8100   56.4190  -11.7870 C.3     7  GLU7        0.1567
      3  C         -3.0120   56.7120  -10.8870 C.2     7  GLU7        0.2260
      4  O         -4.0910   56.1840  -11.1040 O.2     7  GLU7       -0.2867
      5  CB        -1.9790   57.0760  -13.1510 C.3     7  GLU7        0.0388
      6  CG        -2.3030   58.5610  -13.0120 C.3     7  GLU7        0.1160
      7  CD        -2.1910   59.3210  -14.3060 C.2     7  GLU7        0.3649
      8  OE1       -1.9940   60.5700  -14.2290 O.co2   7  GLU7       -0.2457
      9  OE2       -2.2840   58.6840  -15.3890 O.co2   7  GLU7       -0.2457
     10  N          3.5720   66.5350   -1.9450 N.3    19  ILE19      -0.1245
     11  CA         3.7580   67.1570   -3.2380 C.3    19  ILE19       0.1561
     12  C          2.4130   67.7390   -3.6550 C.2    19  ILE19       0.2260
     13  O          1.3950   67.0320   -3.6340 O.2    19  ILE19      -0.2867
     14  CB         4.2040   66.1250   -4.3320 C.3    19  ILE19       0.0252
     15  CG1        5.3690   65.2520   -3.8630 C.3    19  ILE19       0.0019
     16  CG2        4.5660   66.8270   -5.6370 C.3    19  ILE19       0.0019
     17  CD1        5.4590   63.9400   -4.6430 C.3    19  ILE19       0.0001
     18  N         10.8620   61.7030   -2.5670 N.3   183  HIS183     -0.1241
     19  CA         9.8170   62.2450   -3.3970 C.3   183  HIS183      0.1621
     20  C          8.5550   61.4190   -3.3390 C.2   183  HIS183      0.2264
     21  O          7.9420   61.1100   -4.3530 O.2   183  HIS183     -0.2867
     22  CB        10.3090   62.5460   -4.8310 C.3   183  HIS183      0.0745
     23  CG         9.6350   63.7310   -5.4330 C.ar  183  HIS183      0.0817
     24  ND1        8.8700   63.6530   -6.5730 N.ar  183  HIS183     -0.2268
     25  CD2        9.5700   65.0200   -5.0170 C.ar  183  HIS183      0.1154
     26  CE1        8.3610   64.8490   -6.8420 C.ar  183  HIS183      0.1986
     27  NE2        8.7820   65.6960   -5.9150 N.ar  183  HIS183     -0.2212
     28  N          7.7930   57.4700   -5.9210 N.3   186  PRO186     -0.2102
     29  CA         8.2350   57.2600   -7.3020 C.3   186  PRO186      0.1504
     30  C          8.4720   55.7640   -7.5850 C.2   186  PRO186      0.2575
     31  O          8.3340   54.9500   -6.6700 O.2   186  PRO186     -0.2718
     32  CB         9.5570   58.0350   -7.3650 C.3   186  PRO186      0.0282
     33  CG        10.0640   58.0350   -6.0120 C.3   186  PRO186      0.0208
     34  CD         8.8690   58.0290   -5.0910 C.3   186  PRO186      0.0893
     35  N          8.8080   55.4100   -8.8230 N.am  187  ALA187     -0.1980
     36  CA         8.9610   54.0080   -9.1830 C.3   187  ALA187      0.1597
     37  C         10.0300   53.3470   -8.3100 C.2   187  ALA187      0.2287
     38  O          9.8450   52.2100   -7.9050 O.2   187  ALA187     -0.2864
     39  CB         9.3420   53.8860  -10.6650 C.3   187  ALA187      0.0319
     40  N         15.9060   54.9700  -17.6660 N.3   216  PRO216     -0.2102
     41  CA        15.9160   56.3430  -18.2460 C.3   216  PRO216      0.1504
     42  C         14.6260   57.1520  -18.0510 C.2   216  PRO216      0.2576
     43  O         14.6480   58.3930  -18.1530 O.2   216  PRO216     -0.2718
     44  CB        16.1780   56.0750  -19.7380 C.3   216  PRO216      0.0282
     45  CG        15.4810   54.7430  -19.9780 C.3   216  PRO216      0.0208
     46  CD        15.9270   53.9500  -18.7320 C.3   216  PRO216      0.0893
     47  N         13.5080   56.4960  -17.7420 N.am  217  LEU217     -0.1966
     48  CA        12.2860   57.2570  -17.4070 C.3   217  LEU217      0.1728
     49  C         12.2660   57.7170  -15.9760 C.2   217  LEU217      0.2616
     50  O         11.4320   58.5750  -15.6180 O.2   217  LEU217     -0.2715
     51  CB        11.0090   56.4540  -17.6760 C.3   217  LEU217      0.0311
     52  CG        10.8220   55.8930  -19.0670 C.3   217  LEU217      0.0022
     53  CD1        9.4980   55.2160  -19.1150 C.3   217  LEU217      0.0001
     54  CD2       10.8750   57.0750  -20.0530 C.3   217  LEU217      0.0001
     55  N         13.1380   57.1300  -15.1530 N.am  218  HIS218     -0.1973
     56  CA        13.2540   57.5250  -13.7310 C.3   218  HIS218      0.1656
     57  C         14.5990   58.2050  -13.5090 C.2   218  HIS218      0.2291
     58  O         14.9000   59.2070  -14.1550 O.2   218  HIS218     -0.2864
     59  CB        13.0090   56.2850  -12.8190 C.3   218  HIS218      0.0771
     60  CG        12.8260   56.5950  -11.3650 C.ar  218  HIS218      0.0820
     61  ND1       12.6630   57.8760  -10.8800 N.ar  218  HIS218     -0.2267
     62  CD2       12.7320   55.7740  -10.2890 C.ar  218  HIS218      0.1154
     63  CE1       12.5150   57.8380   -9.5690 C.ar  218  HIS218      0.1986
     64  NE2       12.5450   56.5740   -9.1850 N.ar  218  HIS218     -0.2212
     65  N         17.3350   59.4670  -16.2130 N.3   221  ALA221     -0.1245
     66  CA        17.2040   60.7570  -16.8540 C.3   221  ALA221      0.1562
     67  C         18.2990   61.7530  -16.4460 C.2   221  ALA221      0.2260
     68  O         18.5990   62.6660  -17.1940 O.2   221  ALA221     -0.2867
     69  CB        15.7780   61.3550  -16.6130 C.3   221  ALA221      0.0290
     70  N         12.4020   65.4330  -31.2990 N.3   246  ILE246     -0.1245
     71  CA        11.3610   65.5530  -30.2940 C.3   246  ILE246      0.1561
     72  C          9.9900   65.8430  -30.9390 C.2   246  ILE246      0.2260
     73  O          9.0810   65.0540  -30.7520 O.2   246  ILE246     -0.2867
     74  CB        11.6560   66.6200  -29.1930 C.3   246  ILE246      0.0252
     75  CG1       13.0410   66.4410  -28.5290 C.3   246  ILE246      0.0019
     76  CG2       10.5470   66.6070  -28.1380 C.3   246  ILE246      0.0019
     77  CD1       13.3530   65.0560  -27.9570 C.3   246  ILE246      0.0001
     78  N         11.6850   60.6840  -30.0580 N.3   251  LYS251     -0.1231
     79  CA        12.0100   60.3860  -28.6650 C.3   251  LYS251      0.1693
     80  C         11.4610   61.4320  -27.7240 C.2   251  LYS251      0.2592
     81  O         11.1190   62.5370  -28.1530 O.2   251  LYS251     -0.2718
     82  CB        13.5250   60.1540  -28.4660 C.3   251  LYS251      0.0285
     83  CG        14.4300   61.1360  -29.1070 C.3   251  LYS251      0.0035
     84  CD        15.8730   60.6510  -29.0530 C.3   251  LYS251      0.0206
     85  CE        16.8150   61.8170  -28.7650 C.3   251  LYS251      0.1093
     86  NZ        18.2360   61.3950  -28.4290 N.3   251  LYS251     -0.1314
     87  N         11.3330   61.0730  -26.4500 N.am  252  ARG252     -0.1966
     88  CA        10.8930   62.0190  -25.4190 C.3   252  ARG252      0.1729
     89  C         12.0060   62.9950  -25.0690 C.2   252  ARG252      0.2616
     90  O         13.2020   62.6400  -25.1900 O.2   252  ARG252     -0.2715
     91  CB        10.4630   61.2460  -24.1720 C.3   252  ARG252      0.0348
     92  CG         9.1700   60.4990  -24.3990 C.3   252  ARG252      0.0492
     93  CD         8.6670   59.8550  -23.1510 C.3   252  ARG252      0.2205
     94  NE         7.4090   59.1760  -23.4420 N.pl3 252  ARG252     -0.0865
     95  CZ         6.5330   58.7800  -22.5210 C.cat 252  ARG252      0.5346
     96  NH1        5.4050   58.1730  -22.8980 N.pl3 252  ARG252      0.1354
     97  NH2        6.7650   58.9970  -21.2330 N.pl3 252  ARG252      0.1354
     98  N         11.6270   64.2170  -24.6760 N.am  253  LEU253     -0.1963
     99  CA        12.5600   65.1930  -24.1360 C.3   253  LEU253      0.1728
    100  C         12.9610   64.8200  -22.7010 C.2   253  LEU253      0.2616
    101  O         12.1900   64.9790  -21.7490 O.2   253  LEU253     -0.2715
    102  CB        11.9660   66.6110  -24.1680 C.3   253  LEU253      0.0311
    103  CG        12.8390   67.8030  -23.7570 C.3   253  LEU253      0.0022
    104  CD1       14.1720   67.8990  -24.5550 C.3   253  LEU253      0.0001
    105  CD2       12.0410   69.1290  -23.8660 C.3   253  LEU253      0.0001
    106  N         14.1880   64.3500  -22.5530 N.am  254  MET254     -0.1963
    107  CA        14.6710   63.8570  -21.2800 C.3   254  MET254      0.1736
    108  C         14.8770   65.0080  -20.3160 C.2   254  MET254      0.2617
    109  O         15.4040   66.0670  -20.7080 O.2   254  MET254     -0.2715
    110  CB        15.9570   63.0440  -21.4700 C.3   254  MET254      0.0427
    111  CG        15.7740   61.8160  -22.4030 C.3   254  MET254      0.0599
    112  SD        14.3730   60.7120  -21.9700 S.3   254  MET254     -0.1393
    113  CE        15.1520   59.9630  -20.5860 C.3   254  MET254      0.0692
    114  N         14.4050   64.8260  -19.0750 N.am  255  GLY255     -0.1940
    115  CA        14.4220   65.9460  -18.1100 C.3   255  GLY255      0.2014
    116  C         13.1950   66.8630  -18.1110 C.2   255  GLY255      0.2639
    117  O         13.1990   67.8730  -17.4160 O.2   255  GLY255     -0.2714
    118  N         12.1990   66.5390  -18.9390 N.am  256  PHE256     -0.1959
    119  CA        10.8680   67.1710  -18.9250 C.3   256  PHE256      0.1771
    120  C          9.7970   66.1400  -18.5510 C.2   256  PHE256      0.2620
    121  O          9.9240   64.9630  -18.8650 O.2   256  PHE256     -0.2715
    122  CB        10.5010   67.6950  -20.3130 C.3   256  PHE256      0.0574
    123  CG        10.8460   69.1500  -20.5500 C.ar  256  PHE256     -0.0200
    124  CD1        9.8330   70.0790  -20.7260 C.ar  256  PHE256     -0.0042
    125  CD2       12.1840   69.5860  -20.5880 C.ar  256  PHE256     -0.0042
    126  CE1       10.1230   71.4270  -20.9540 C.ar  256  PHE256     -0.0003
    127  CE2       12.4900   70.9470  -20.8210 C.ar  256  PHE256     -0.0003
    128  CZ        11.4550   71.8610  -21.0010 C.ar  256  PHE256     -0.0000
    129  N          8.7220   66.5890  -17.9450 N.am  257  GLY257     -0.1940
    130  CA         7.5940   65.6910  -17.6500 C.3   257  GLY257      0.2014
    131  C          7.7420   65.0780  -16.2690 C.2   257  GLY257      0.2639
    132  O          8.8520   64.9380  -15.7360 O.2   257  GLY257     -0.2714
    133  N          6.5990   64.6950  -15.6910 N.am  258  HIS258     -0.1959
    134  CA         6.5670   64.1220  -14.3740 C.3   258  HIS258      0.1787
    135  C          5.2000   63.5150  -14.1540 C.2   258  HIS258      0.2620
    136  O          4.1820   64.0730  -14.6030 O.2   258  HIS258     -0.2715
    137  CB         6.8000   65.2250  -13.3380 C.3   258  HIS258      0.0785
    138  CG         7.2890   64.7010  -12.0230 C.ar  258  HIS258      0.0821
    139  ND1        6.4330   64.3000  -11.0200 N.ar  258  HIS258     -0.2267
    140  CD2        8.5420   64.4640  -11.5720 C.ar  258  HIS258      0.1154
    141  CE1        7.1430   63.8820   -9.9840 C.ar  258  HIS258      0.1986
    142  NE2        8.4210   63.9550  -10.3010 N.ar  258  HIS258     -0.2212
    143  N          5.1410   62.3870  -13.4690 N.am  259  ARG259     -0.1963
    144  CA         3.8290   61.8330  -13.1440 C.3   259  ARG259      0.1729
    145  C          3.0020   62.7700  -12.2420 C.2   259  ARG259      0.2616
    146  O          1.7860   62.8630  -12.3840 O.2   259  ARG259     -0.2715
    147  CB         3.9560   60.4510  -12.4780 C.3   259  ARG259      0.0348
    148  CG         2.6270   59.8520  -12.0110 C.3   259  ARG259      0.0492
    149  CD         1.6050   59.5650  -13.1620 C.3   259  ARG259      0.2205
    150  NE         2.1170   58.6930  -14.2250 N.pl3 259  ARG259     -0.0865
    151  CZ         2.2480   57.3710  -14.1190 C.cat 259  ARG259      0.5346
    152  NH1        2.7010   56.6790  -15.1220 N.pl3 259  ARG259      0.1354
    153  NH2        1.9090   56.7400  -13.0190 N.pl3 259  ARG259      0.1354
    154  N          3.6620   63.4750  -11.3410 N.am  260  VAL260     -0.1977
    155  CA         2.9540   64.3150  -10.3850 C.3   260  VAL260      0.1596
    156  C          2.9630   65.7750  -10.8440 C.2   260  VAL260      0.2287
    157  O          1.8890   66.4010  -10.9010 O.2   260  VAL260     -0.2864
    158  CB         3.5000   64.1040   -8.9660 C.3   260  VAL260      0.0276
    159  CG1        2.7000   64.8970   -7.9180 C.3   260  VAL260      0.0022
    160  CG2        3.4210   62.5960   -8.6230 C.3   260  VAL260      0.0022
    161  N          2.6570   69.0330  -12.7950 N.3   262  LYS262     -0.1245
    162  CA         2.1080   69.6020  -14.0190 C.3   262  LYS262      0.1561
    163  C          2.5660   71.0450  -14.1790 C.2   262  LYS262      0.2260
    164  O          1.9360   71.8270  -14.8660 O.2   262  LYS262     -0.2867
    165  CB         0.5840   69.5770  -13.9660 C.3   262  LYS262      0.0271
    166  CG         0.0160   68.3150  -14.5660 C.3   262  LYS262      0.0035
    167  CD         0.1590   67.1210  -13.6860 C.3   262  LYS262      0.0206
    168  CE        -0.0330   65.8280  -14.4900 C.3   262  LYS262      0.1093
    169  NZ         1.2370   65.3410  -15.1350 N.3   262  LYS262     -0.1314
    170  N         12.4340   71.5850   -7.3090 N.3   267  ARG267     -0.1245
    171  CA        13.8280   71.1860   -7.1610 C.3   267  ARG267      0.1563
    172  C         14.6050   71.6060   -8.4000 C.2   267  ARG267      0.2260
    173  O         15.7710   71.9690   -8.2910 O.2   267  ARG267     -0.2867
    174  CB        13.9450   69.6530   -6.9840 C.3   267  ARG267      0.0307
    175  CG        13.0600   69.1000   -5.8680 C.3   267  ARG267      0.0489
    176  CD        12.8380   67.5870   -5.9770 C.3   267  ARG267      0.2205
    177  NE        12.1040   67.1860   -7.1860 N.pl3 267  ARG267     -0.0865
    178  CZ        11.9180   65.9130   -7.5560 C.cat 267  ARG267      0.5346
    179  NH1       11.2660   65.6270   -8.6730 N.pl3 267  ARG267      0.1354
    180  NH2       12.4330   64.9310   -6.8250 N.pl3 267  ARG267      0.1354
    181  N          5.4410   72.1530  -24.8930 N.3   303  PHE303     -0.1241
    182  CA         4.9350   71.0940  -24.0100 C.3   303  PHE303      0.1605
    183  C          4.2530   71.5930  -22.7620 C.2   303  PHE303      0.2264
    184  O          3.5260   70.8400  -22.1380 O.2   303  PHE303     -0.2867
    185  CB         6.0410   70.0950  -23.6150 C.3   303  PHE303      0.0534
    186  CG         6.5090   69.2460  -24.7460 C.ar  303  PHE303     -0.0203
    187  CD1        5.5930   68.5320  -25.5240 C.ar  303  PHE303     -0.0042
    188  CD2        7.8640   69.1590  -25.0390 C.ar  303  PHE303     -0.0042
    189  CE1        6.0180   67.7490  -26.6210 C.ar  303  PHE303     -0.0003
    190  CE2        8.3220   68.3840  -26.1170 C.ar  303  PHE303     -0.0003
    191  CZ         7.3980   67.6630  -26.9140 C.ar  303  PHE303     -0.0000
    192  N          3.7990   69.5440  -19.1360 N.3   308  ILE308     -0.1245
    193  CA         5.1230   68.8940  -19.2540 C.3   308  ILE308      0.1561
    194  C          6.1970   69.9850  -19.1890 C.2   308  ILE308      0.2260
    195  O          6.3840   70.7580  -20.1660 O.2   308  ILE308     -0.2867
    196  CB         5.2030   68.0100  -20.5510 C.3   308  ILE308      0.0252
    197  CG1        4.2640   66.7950  -20.4470 C.3   308  ILE308      0.0019
    198  CG2        6.6850   67.5670  -20.9380 C.3   308  ILE308      0.0019
    199  CD1        3.9440   66.2310  -21.8380 C.3   308  ILE308      0.0001
    200  N         11.9770   68.8260  -15.1820 N.3   311  ASN311     -0.1225
    201  CA        12.0110   68.1700  -13.8880 C.3   311  ASN311      0.1785
    202  C         13.4360   68.2910  -13.2850 C.2   311  ASN311      0.2598
    203  O         14.3500   68.8410  -13.9080 O.2   311  ASN311     -0.2718
    204  CB        11.5070   66.6980  -13.9750 C.3   311  ASN311      0.1169
    205  CG        12.3410   65.8410  -14.9080 C.2   311  ASN311      0.2627
    206  OD1       13.5570   65.7580  -14.7330 O.2   311  ASN311     -0.2716
    207  ND2       11.6920   65.1490  -15.8830 N.am  311  ASN311     -0.0877
    208  N         13.6030   67.7300  -12.0950 N.am  312  THR312     -0.1939
    209  CA        14.8690   67.6990  -11.3620 C.3   312  THR312      0.2028
    210  C         16.1110   67.2270  -12.2060 C.2   312  THR312      0.2642
    211  O         17.2290   67.7920  -12.1040 O.2   312  THR312     -0.2714
    212  CB        14.6200   66.8180  -10.0980 C.3   312  THR312      0.1808
    213  OG1       15.5130   67.1870   -9.0500 O.3   312  THR312     -0.2208
    214  CG2       14.7310   65.3010  -10.4330 C.3   312  THR312      0.0379
    215  N         15.8910   66.2410  -13.0840 N.am  313  ASP313     -0.1971
    216  CA        16.9480   65.6230  -13.8680 C.3   313  ASP313      0.1709
    217  C         17.4270   66.4550  -15.0690 C.2   313  ASP313      0.2293
    218  O         18.4880   66.1800  -15.6150 O.2   313  ASP313     -0.2864
    219  CB        16.5410   64.2180  -14.2700 C.3   313  ASP313      0.1436
    220  CG        16.2490   63.3220  -13.0480 C.2   313  ASP313      0.3671
    221  OD1       15.5500   62.3100  -13.2020 O.co2 313  ASP313     -0.2456
    222  OD2       16.6950   63.6340  -11.9190 O.co2 313  ASP313     -0.2456
    223  N         22.2870   60.4530   -7.4710 N.3   336  PHE336     -0.1241
    224  CA        20.8480   60.5590   -7.1690 C.3   336  PHE336      0.1605
    225  C         20.5800   59.4520   -6.1340 C.2   336  PHE336      0.2264
    226  O         20.0220   59.7310   -5.0880 O.2   336  PHE336     -0.2867
    227  CB        20.0270   60.3340   -8.4600 C.3   336  PHE336      0.0534
    228  CG        18.5090   60.4640   -8.3250 C.ar  336  PHE336     -0.0203
    229  CD1       17.7510   60.7610   -9.4690 C.ar  336  PHE336     -0.0042
    230  CD2       17.8330   60.2470   -7.1270 C.ar  336  PHE336     -0.0042
    231  CE1       16.3540   60.8520   -9.4280 C.ar  336  PHE336     -0.0003
    232  CE2       16.4180   60.3610   -7.0670 C.ar  336  PHE336     -0.0003
    233  CZ        15.6870   60.6570   -8.2280 C.ar  336  PHE336     -0.0000
    234  N         18.9320   59.5240   -2.2470 N.3   340  ARG340     -0.1245
    235  CA        17.5910   58.9990   -2.1090 C.3   340  ARG340      0.1563
    236  C         17.5210   57.8050   -1.1600 C.2   340  ARG340      0.2260
    237  O         16.4430   57.4430   -0.6870 O.2   340  ARG340     -0.2867
    238  CB        17.0450   58.6300   -3.5050 C.3   340  ARG340      0.0307
    239  CG        15.6250   58.0240   -3.5340 C.3   340  ARG340      0.0489
    240  CD        14.4970   58.9340   -3.0210 C.3   340  ARG340      0.2205
    241  NE        14.4710   60.2410   -3.6820 N.pl3 340  ARG340     -0.0865
    242  CZ        13.8330   60.5170   -4.8200 C.cat 340  ARG340      0.5346
    243  NH1       13.1510   59.5700   -5.4480 N.pl3 340  ARG340      0.1354
    244  NH2       13.8960   61.7470   -5.3430 N.pl3 340  ARG340      0.1354
@<TRIPOS>BOND
     1    70    71    1
     2    72    73    2
     3    72    71    1
     4    71    74    1
     5    78    79    1
     6    74    75    1
     7    74    76    1
     8    83    84    1
     9    83    82    1
    10    84    85    1
    11    85    86    1
    12    79    82    1
    13    79    80    1
    14    75    77    1
    15    81    80    2
    16    80    87   am
    17   191   189   ar
    18   191   190   ar
    19   189   187   ar
    20    87    88    1
    21   190   188   ar
    22   187   186   ar
    23    88    89    1
    24    88    91    1
    25    90    89    2
    26    89    98   am
    27   188   186   ar
    28   181   182    1
    29   186   185    1
    30    98    99    1
    31   104   103    1
    32    92    91    1
    33    92    93    1
    34   102    99    1
    35   102   103    1
    36    99   100    1
    37   182   185    1
    38   182   183    1
    39   105   103    1
    40    94    93    1
    41    94    95    2
    42    96    95    1
    43   183   184    2
    44   100   106   am
    45   100   101    2
    46   106   107    1
    47    95    97    1
    48   111   112    1
    49   111   110    1
    50   112   113    1
    51   199   197    1
    52   110   107    1
    53   107   108    1
    54   128   126   ar
    55   128   127   ar
    56   126   124   ar
    57   198   196    1
    58   127   125   ar
    59   124   123   ar
    60   109   108    2
    61   125   123   ar
    62   196   197    1
    63   196   193    1
    64   123   122    1
    65   108   114   am
    66   122   119    1
    67   195   194    2
    68    54    52    1
    69    45    44    1
    70    45    46    1
    71    44    41    1
    72   193   194    1
    73   193   192    1
    74    53    52    1
    75   114   115    1
    76    52    51    1
    77   118   119    1
    78   118   116   am
    79   119   120    1
    80   121   120    2
    81    46    40    1
    82   120   129   am
    83    41    42    1
    84    41    40    1
    85    43    42    2
    86   116   115    1
    87   116   117    2
    88    42    47   am
    89   129   130    1
    90    47    48    1
    91    51    48    1
    92   130   131    1
    93    48    49    1
    94    68    67    2
    95    66    69    1
    96    66    67    1
    97    66    65    1
    98   131   132    2
    99   131   133   am
   100    49    50    2
   101    49    55   am
   102   207   205   am
   103   133   134    1
   104   218   217    2
   105     9     7   ar
   106   200   201    1
   107    55    56    1
   108   169   168    1
   109   152   151    1
   110   217   216    1
   111   205   206    2
   112   205   204    1
   113   164   163    2
   114   136   135    2
   115   166   165    1
   116   166   167    1
   117   168   167    1
   118   134   135    1
   119   134   137    1
   120     7     8   ar
   121     7     6    1
   122   219   216    1
   123   219   220    1
   124   150   151    2
   125   150   149    1
   126   163   162    1
   127    58    57    2
   128   135   143   am
   129   151   153    1
   130   162   165    1
   131   162   161    1
   132   204   201    1
   133   203   202    2
   134   201   202    1
   135   216   215    1
   136    56    57    1
   137    56    59    1
   138   143   144    1
   139   137   138    1
   140   202   208   am
   141   221   220   ar
   142   149   148    1
   143     5     6    1
   144     5     2    1
   145   144   147    1
   146   144   145    1
   147   215   210   am
   148   220   222   ar
   149    59    60    1
   150   147   148    1
   151   146   145    2
   152   145   154   am
   153   210   211    2
   154   210   209    1
   155   208   209    1
   156   138   140   ar
   157   138   139   ar
   158     1     2    1
   159     2     3    1
   160   140   142   ar
   161    60    61   ar
   162    60    62   ar
   163   209   212    1
   164   154   155    1
   165     4     3    2
   166   139   141   ar
   167   157   156    2
   168    61    63   ar
   169   156   155    1
   170    39    36    1
   171   214   212    1
   172   155   158    1
   173   142   141   ar
   174    62    64   ar
   175   212   213    1
   176    63    64   ar
   177   229   231   ar
   178   229   228   ar
   179   231   233   ar
   180    36    35    1
   181    36    37    1
   182   158   160    1
   183   158   159    1
   184    35    30   am
   185   179   178    1
   186   227   228    1
   187   227   224    1
   188   172   173    2
   189   172   171    1
   190   228   230   ar
   191    37    38    2
   192   233   232   ar
   193    30    29    1
   194    30    31    2
   195   178   177    2
   196   178   180    1
   197   223   224    1
   198    32    29    1
   199    32    33    1
   200   170   171    1
   201    29    28    1
   202   177   176    1
   203   224   225    1
   204   171   174    1
   205   230   232   ar
   206   174   175    1
   207    26    24   ar
   208    26    27   ar
   209    24    23   ar
   210   225   226    2
   211    33    34    1
   212   176   175    1
   213    28    34    1
   214    27    25   ar
   215    16    14    1
   216   243   242    1
   217    23    25   ar
   218    23    22    1
   219   244   242    1
   220    22    19    1
   221   242   241    2
   222    17    15    1
   223    21    20    2
   224    14    15    1
   225    14    11    1
   226   241   240    1
   227    12    13    2
   228    12    11    1
   229   239   238    1
   230   239   240    1
   231   238   235    1
   232    19    20    1
   233    19    18    1
   234    11    10    1
   235   234   235    1
   236   235   236    1
   237   236   237    2
