@<TRIPOS>MOLECULE
tmp/2r9fA00.pdb
 174 169 0 0 0
SMALL
GASTEIGER

@<TRIPOS>ATOM
      1  N         -2.8880    0.5390   16.3100 N.3    77  GLN77      -0.1231
      2  CA        -3.2420    1.9240   16.5750 C.3    77  GLN77       0.1698
      3  C         -2.0380    2.7830   16.9540 C.2    77  GLN77       0.2593
      4  O         -1.1430    2.3330   17.6730 O.2    77  GLN77      -0.2718
      5  CB        -4.3010    2.0030   17.6630 C.3    77  GLN77       0.0381
      6  CG        -4.7970    3.4200   17.8950 C.3    77  GLN77       0.0905
      7  CD        -6.0650    3.4650   18.6890 C.2    77  GLN77       0.2608
      8  OE1       -6.5740    2.4350   19.1630 O.2    77  GLN77      -0.2717
      9  NE2       -6.5880    4.6670   18.8610 N.am   77  GLN77      -0.0878
     10  N         -2.0490    4.0130   16.4470 N.am   78  GLY78      -0.1942
     11  CA        -1.0520    5.0310   16.7960 C.3    78  GLY78       0.2014
     12  C         -1.5730    6.0780   17.7770 C.2    78  GLY78       0.2639
     13  O         -2.5050    5.8240   18.5480 O.2    78  GLY78      -0.2714
     14  N         -1.0210    7.2860   17.7130 N.am   79  ALA79      -0.1963
     15  CA        -1.3190    8.3170   18.7090 C.3    79  ALA79       0.1728
     16  C         -2.5280    9.1820   18.3190 C.2    79  ALA79       0.2616
     17  O         -2.3940   10.3720   17.9400 O.2    79  ALA79      -0.2715
     18  CB        -0.0430    9.1790   18.9490 C.3    79  ALA79       0.0334
     19  N         -3.7170    8.5820   18.3940 N.am   80  LEU80      -0.1963
     20  CA        -4.9400    9.2620   17.9810 C.3    80  LEU80       0.1728
     21  C         -6.1100    8.5090   18.5870 C.2    80  LEU80       0.2616
     22  O         -6.0130    7.2980   18.7880 O.2    80  LEU80      -0.2715
     23  CB        -5.0420    9.2440   16.4490 C.3    80  LEU80       0.0311
     24  CG        -6.1650   10.0250   15.7710 C.3    80  LEU80       0.0022
     25  CD1       -5.9490   11.5210   16.0260 C.3    80  LEU80       0.0001
     26  CD2       -6.1990    9.6880   14.2650 C.3    80  LEU80       0.0001
     27  N         -7.2170    9.2180   18.8290 N.am   81  GLY81      -0.1955
     28  CA        -8.3860    8.6300   19.4630 C.3    81  GLY81       0.1869
     29  C         -9.3240    7.9060   18.5110 C.2    81  GLY81       0.2309
     30  O        -10.5530    7.9750   18.6660 O.2    81  GLY81      -0.2863
     31  N         -9.8440    4.6050   17.8710 N.3    83  CYS83      -0.1221
     32  CA        -9.9620    3.1730   18.1000 C.3    83  CYS83       0.1808
     33  C        -11.2190    2.6330   17.4110 C.2    83  CYS83       0.2601
     34  O        -11.1850    1.5420   16.8420 O.2    83  CYS83      -0.2717
     35  CB       -10.0110    2.8380   19.5890 C.3    83  CYS83       0.0970
     36  SG       -11.2790    3.7430   20.4760 S.3    83  CYS83      -0.0800
     37  N        -12.3050    3.4090   17.4380 N.am   84  TRP84      -0.1976
     38  CA       -13.5780    3.0050   16.8090 C.3    84  TRP84       0.1640
     39  C        -13.4060    2.7110   15.3070 C.2    84  TRP84       0.2290
     40  O        -13.9170    1.7150   14.7590 O.2    84  TRP84      -0.2864
     41  CB       -14.6340    4.0920   17.0350 C.3    84  TRP84       0.0576
     42  CG       -14.1770    5.4690   16.5650 C.ar   84  TRP84       0.0006
     43  CD1      -13.3600    6.3490   17.2390 C.ar   84  TRP84       0.0946
     44  CD2      -14.4990    6.0960   15.3060 C.ar   84  TRP84       0.0152
     45  NE1      -13.1780    7.5010   16.4740 N.ar   84  TRP84      -0.2442
     46  CE2      -13.8550    7.3610   15.2920 C.ar   84  TRP84       0.0810
     47  CE3      -15.2930    5.7210   14.2000 C.ar   84  TRP84       0.0012
     48  CZ2      -13.9610    8.2560   14.2020 C.ar   84  TRP84       0.0191
     49  CZ3      -15.4030    6.6390   13.1020 C.ar   84  TRP84       0.0001
     50  CH2      -14.7320    7.8720   13.1290 C.ar   84  TRP84       0.0015
     51  N         -0.3630    1.7840   12.0090 N.3   147  HIS147     -0.1241
     52  CA         0.7080    1.0800   11.3050 C.3   147  HIS147      0.1621
     53  C          0.4490   -0.4330   11.3450 C.2   147  HIS147      0.2264
     54  O         -0.3740   -0.9060   12.1440 O.2   147  HIS147     -0.2867
     55  CB         2.0670    1.4280   11.9180 C.3   147  HIS147      0.0745
     56  CG         2.1290    1.1750   13.3870 C.ar  147  HIS147      0.0817
     57  ND1        1.6890    2.0950   14.3140 N.ar  147  HIS147     -0.2268
     58  CD2        2.5390    0.0940   14.0870 C.ar  147  HIS147      0.1154
     59  CE1        1.8470    1.5920   15.5300 C.ar  147  HIS147      0.1986
     60  NE2        2.3590    0.3820   15.4170 N.ar  147  HIS147     -0.2212
     61  N        -10.8120   11.7430   16.5270 N.3   174  SER174     -0.1202
     62  CA       -10.6070   11.4020   17.9400 C.3   174  SER174      0.2020
     63  C        -11.9490   11.3530   18.6740 C.2   174  SER174      0.2619
     64  O        -12.6500   12.3640   18.7800 O.2   174  SER174     -0.2717
     65  CB        -9.6310   12.3670   18.6130 C.3   174  SER174      0.2103
     66  OG        -8.3240   12.2110   18.0670 O.3   174  SER174     -0.2182
     67  N        -12.3100   10.1640   19.1620 N.am  175  GLY175     -0.1941
     68  CA       -13.6020    9.9750   19.8220 C.3   175  GLY175      0.2017
     69  C        -14.6890    9.6890   18.8010 C.2   175  GLY175      0.2678
     70  O        -15.0140   10.5310   17.9620 O.2   175  GLY175     -0.2710
     71  N        -15.2500    8.4880   18.8430 N.am  176  GLY176     -0.1716
     72  CA       -16.2430    8.1380   17.8540 C.2   176  GLY176      0.1480
     73  C        -17.0000    6.8630   18.1110 C.2   176  GLY176      0.2821
     74  O        -16.8730    6.2270   19.1720 O.2   176  GLY176     -0.2669
     75  N        -17.7870    6.4950   17.1090 N.am  177  CYS177     -0.1919
     76  CA       -18.7130    5.3800   17.2310 C.3   177  CYS177      0.1846
     77  C        -18.3750    4.3030   16.2040 C.2   177  CYS177      0.2626
     78  O        -18.3790    4.5420   14.9890 O.2   177  CYS177     -0.2714
     79  CB       -20.1530    5.8610   17.0600 C.3   177  CYS177      0.0997
     80  SG       -20.5660    7.3480   18.0330 S.3   177  CYS177     -0.0797
     81  N        -18.0550    3.1190   16.7010 N.am  178  THR178     -0.1950
     82  CA       -17.6910    1.9970   15.8250 C.3   178  THR178      0.1897
     83  C        -18.7090    1.7760   14.6870 C.2   178  THR178      0.2313
     84  O        -18.3190    1.5790   13.5260 O.2   178  THR178     -0.2863
     85  CB       -17.4180    0.7170   16.6510 C.3   178  THR178      0.1794
     86  OG1      -16.5880    1.0630   17.7770 O.3   178  THR178     -0.2208
     87  CG2      -16.7290   -0.3640   15.7960 C.3   178  THR178      0.0378
     88  N        -17.1710   -4.4490   20.1840 N.3   218  CYS218     -0.1221
     89  CA       -17.6970   -4.3460   21.5480 C.3   218  CYS218      0.1808
     90  C        -16.9290   -3.3310   22.3810 C.2   218  CYS218      0.2602
     91  O        -15.8210   -2.9390   22.0290 O.2   218  CYS218     -0.2717
     92  CB       -17.7170   -5.7180   22.2290 C.3   218  CYS218      0.0970
     93  SG       -16.0990   -6.5150   22.2080 S.3   218  CYS218     -0.0800
     94  N        -17.5280   -2.8950   23.4880 N.am  219  SER219     -0.1938
     95  CA       -16.8720   -1.9370   24.3710 C.3   219  SER219      0.2055
     96  C        -17.3630   -2.0740   25.8220 C.2   219  SER219      0.2642
     97  O        -18.4130   -2.6940   26.0810 O.2   219  SER219     -0.2714
     98  CB       -17.0840   -0.5010   23.8690 C.3   219  SER219      0.2130
     99  OG       -18.4560   -0.1320   23.8230 O.3   219  SER219     -0.2179
    100  N        -16.6010   -1.4850   26.7470 N.am  220  ILE220     -0.1977
    101  CA       -16.9640   -1.4500   28.1740 C.3   220  ILE220      0.1596
    102  C        -17.2010    0.0100   28.5350 C.2   220  ILE220      0.2287
    103  O        -16.3180    0.8530   28.3530 O.2   220  ILE220     -0.2864
    104  CB       -15.8230   -1.9770   29.0580 C.3   220  ILE220      0.0276
    105  CG1      -15.3890   -3.3690   28.6160 C.3   220  ILE220      0.0022
    106  CG2      -16.2190   -1.9670   30.5490 C.3   220  ILE220      0.0022
    107  CD1      -13.9760   -3.7110   29.0250 C.3   220  ILE220      0.0001
    108  N         -9.4380   -2.6010   28.4630 N.3   237  VAL237     -0.1245
    109  CA        -9.4750   -1.1480   28.3590 C.3   237  VAL237      0.1561
    110  C        -10.9330   -0.6490   28.2670 C.2   237  VAL237      0.2260
    111  O        -11.6800   -1.0870   27.3990 O.2   237  VAL237     -0.2867
    112  CB        -8.6620   -0.6560   27.1240 C.3   237  VAL237      0.0252
    113  CG1       -8.3960    0.8430   27.2200 C.3   237  VAL237      0.0019
    114  CG2       -7.3550   -1.4540   26.9520 C.3   237  VAL237      0.0019
    115  N        -14.0470    2.2670   27.7070 N.3   239  GLY239     -0.1210
    116  CA       -14.3350    3.3550   26.7570 C.3   239  GLY239      0.1956
    117  C        -13.5570    3.2090   25.4540 C.2   239  GLY239      0.2612
    118  O        -13.1970    4.2080   24.8250 O.2   239  GLY239     -0.2717
    119  N        -13.3300    1.9560   25.0530 N.am  240  HIS240     -0.1961
    120  CA       -12.3990    1.6050   23.9770 C.3   240  HIS240      0.1787
    121  C        -13.0130    0.5580   23.0560 C.2   240  HIS240      0.2620
    122  O        -13.5540   -0.4520   23.5210 O.2   240  HIS240     -0.2715
    123  CB       -11.1290    1.0510   24.6110 C.3   240  HIS240      0.0785
    124  CG       -10.0500    0.6840   23.6460 C.ar  240  HIS240      0.0821
    125  ND1       -9.4730    1.5990   22.7920 N.ar  240  HIS240     -0.2267
    126  CD2       -9.4000   -0.4880   23.4440 C.ar  240  HIS240      0.1154
    127  CE1       -8.5190    1.0010   22.0950 C.ar  240  HIS240      0.1986
    128  NE2       -8.4590   -0.2660   22.4700 N.ar  240  HIS240     -0.2212
    129  N        -12.9050    0.7940   21.7550 N.am  241  ALA241     -0.1977
    130  CA       -13.4520   -0.1330   20.7600 C.3   241  ALA241      0.1597
    131  C        -12.5930   -1.3750   20.5190 C.2   241  ALA241      0.2287
    132  O        -11.4100   -1.2730   20.1630 O.2   241  ALA241     -0.2864
    133  CB       -13.7030    0.5890   19.4480 C.3   241  ALA241      0.0319
    134  N         -5.0350   -1.8040   19.3970 N.3   266  TRP266     -0.1241
    135  CA        -3.6240   -1.5170   19.6950 C.3   266  TRP266      0.1605
    136  C         -2.6680   -2.5820   19.1700 C.2   266  TRP266      0.2264
    137  O         -1.4830   -2.3140   19.0230 O.2   266  TRP266     -0.2867
    138  CB        -3.3950   -1.3720   21.2060 C.3   266  TRP266      0.0550
    139  CG        -4.1420   -0.2670   21.8360 C.ar  266  TRP266      0.0003
    140  CD1       -4.8850    0.7020   21.2020 C.ar  266  TRP266      0.0946
    141  CD2       -4.1950    0.0440   23.2370 C.ar  266  TRP266      0.0152
    142  NE1       -5.4140    1.5740   22.1300 N.ar  266  TRP266     -0.2442
    143  CE2       -5.0100    1.1910   23.3840 C.ar  266  TRP266      0.0810
    144  CE3       -3.6630   -0.5580   24.3860 C.ar  266  TRP266      0.0012
    145  CZ2       -5.2950    1.7600   24.6410 C.ar  266  TRP266      0.0191
    146  CZ3       -3.9330    0.0260   25.6370 C.ar  266  TRP266      0.0001
    147  CH2       -4.7450    1.1580   25.7500 C.ar  266  TRP266      0.0015
    148  N         -1.9590   -5.0670   20.9280 N.3   268  GLU268     -0.1245
    149  CA        -1.3680   -5.4730   22.2130 C.3   268  GLU268      0.1567
    150  C         -2.3200   -5.1070   23.3700 C.2   268  GLU268      0.2260
    151  O         -3.3290   -4.4050   23.1690 O.2   268  GLU268     -0.2867
    152  CB        -0.0160   -4.7740   22.4150 C.3   268  GLU268      0.0388
    153  CG        -0.1090   -3.2660   22.3490 C.3   268  GLU268      0.1160
    154  CD         1.1950   -2.5760   22.6600 C.2   268  GLU268      0.3649
    155  OE1        1.1410   -1.4390   23.1860 O.co2 268  GLU268     -0.2457
    156  OE2        2.2590   -3.1680   22.3750 O.co2 268  GLU268     -0.2457
    157  N        -21.5010   -3.2960   25.8050 N.3   315  LYS315     -0.1245
    158  CA       -22.1280   -2.9880   24.5110 C.3   315  LYS315      0.1561
    159  C        -21.5490   -3.8620   23.3950 C.2   315  LYS315      0.2260
    160  O        -20.3380   -4.0680   23.3160 O.2   315  LYS315     -0.2867
    161  CB       -21.8910   -1.5060   24.1920 C.3   315  LYS315      0.0271
    162  CG       -22.4870   -0.9900   22.8930 C.3   315  LYS315      0.0035
    163  CD       -22.3860    0.5470   22.8550 C.3   315  LYS315      0.0206
    164  CE       -23.1610    1.1220   21.6950 C.3   315  LYS315      0.1093
    165  NZ       -23.0590    2.5930   21.6170 N.3   315  LYS315     -0.1314
    166  N        -21.9680   -4.1350   19.0850 N.3   317  GLU317     -0.1245
    167  CA       -22.4940   -3.5290   17.8650 C.3   317  GLU317      0.1567
    168  C        -22.3180   -4.5120   16.7010 C.2   317  GLU317      0.2260
    169  O        -21.2670   -5.1320   16.5570 O.2   317  GLU317     -0.2867
    170  CB       -21.7640   -2.2060   17.5670 C.3   317  GLU317      0.0388
    171  CG       -21.9770   -1.1360   18.6520 C.3   317  GLU317      0.1160
    172  CD       -21.1300    0.1200   18.4570 C.2   317  GLU317      0.3649
    173  OE1      -20.3530    0.4690   19.3670 O.co2 317  GLU317     -0.2457
    174  OE2      -21.2350    0.7540   17.3850 O.co2 317  GLU317     -0.2457
@<TRIPOS>BOND
     1    52    53    1
     2    52    55    1
     3    52    51    1
     4    53    54    2
     5    55    56    1
     6    49    50   ar
     7    49    47   ar
     8    50    48   ar
     9    56    58   ar
    10    56    57   ar
    11    84    83    2
    12    58    60   ar
    13    47    44   ar
    14    48    46   ar
    15    26    24    1
    16    57    59   ar
    17    83    82    1
    18    40    39    2
    19    78    77    2
    20    46    44   ar
    21    46    45   ar
    22    44    42   ar
    23    39    38    1
    24    60    59   ar
    25    24    25    1
    26    24    23    1
    27    87    85    1
    28    82    85    1
    29    82    81    1
    30    77    81   am
    31    77    76    1
    32     1     2    1
    33    10    11    1
    34    10     3   am
    35    23    20    1
    36    45    43   ar
    37    61    62    1
    38   169   168    2
    39    42    41    1
    40    42    43   ar
    41     2     3    1
    42     2     5    1
    43    85    86    1
    44   168   167    1
    45    11    12    1
    46    38    41    1
    47    38    37    1
    48    34    33    2
    49     3     4    2
    50    79    76    1
    51    79    80    1
    52    75    76    1
    53    75    73   am
    54   174   172   ar
    55    33    37   am
    56    33    32    1
    57   170   167    1
    58   170   171    1
    59     5     6    1
    60    14    12   am
    61    14    15    1
    62    12    13    2
    63    72    73    1
    64    72    71    2
    65   167   166    1
    66    31    32    1
    67     6     7    1
    68    17    16    2
    69    62    65    1
    70    62    63    1
    71    70    69    2
    72    20    19    1
    73    20    21    1
    74    66    65    1
    75    32    35    1
    76    73    74    2
    77    16    19   am
    78    16    15    1
    79   172   171    1
    80   172   173   ar
    81    29    30    2
    82    29    28    1
    83    21    22    2
    84    21    27   am
    85    63    64    2
    86    63    67   am
    87     7     9   am
    88     7     8    2
    89    15    18    1
    90    69    71    1
    91    69    68    1
    92    27    28    1
    93   137   136    2
    94    67    68    1
    95   136   135    1
    96   134   135    1
    97   133   130    1
    98    35    36    1
    99   135   138    1
   100   132   131    2
   101    88    89    1
   102   131   130    1
   103   130   129    1
   104   148   149    1
   105   140   139   ar
   106   140   142   ar
   107   138   139    1
   108    89    92    1
   109    89    90    1
   110   165   164    1
   111   164   163    1
   112   129   121   am
   113   139   141   ar
   114    91    90    2
   115   127   128   ar
   116   127   125   ar
   117   142   143   ar
   118    93    92    1
   119   149   152    1
   120   149   150    1
   121   153   152    1
   122   153   154    1
   123   156   154   ar
   124    90    94   am
   125   128   126   ar
   126   154   155   ar
   127   125   124   ar
   128   163   162    1
   129   162   161    1
   130   121   122    2
   131   121   120    1
   132   151   150    2
   133   141   143   ar
   134   141   144   ar
   135   160   159    2
   136   143   145   ar
   137   159   158    1
   138   126   124   ar
   139    94    95    1
   140   124   123    1
   141    99    98    1
   142    98    95    1
   143   120   123    1
   144   120   119    1
   145   161   158    1
   146    95    96    1
   147   144   146   ar
   148   158   157    1
   149   145   147   ar
   150   118   117    2
   151   119   117   am
   152   117   116    1
   153   146   147   ar
   154    96    97    2
   155    96   100   am
   156   100   101    1
   157   116   115    1
   158   114   112    1
   159   112   113    1
   160   112   109    1
   161   111   110    2
   162   101   102    1
   163   101   104    1
   164   110   109    1
   165   103   102    2
   166   109   108    1
   167   105   107    1
   168   105   104    1
   169   104   106    1
