@<TRIPOS>MOLECULE
tmp/2r9mB00.pdb
 139 136 0 0 0
SMALL
GASTEIGER

@<TRIPOS>ATOM
      1  N         37.2010   22.4250   58.5390 N.3    19  GLN19      -0.1245
      2  CA        38.0090   22.5040   59.7690 C.3    19  GLN19       0.1566
      3  C         37.2610   23.1030   60.9570 C.2    19  GLN19       0.2260
      4  O         37.6430   22.9040   62.1140 O.2    19  GLN19      -0.2867
      5  CB        39.3120   23.2860   59.5140 C.3    19  GLN19       0.0367
      6  CG        39.1530   24.7980   59.3400 C.3    19  GLN19       0.0905
      7  CD        40.4450   25.4510   58.8700 C.2    19  GLN19       0.2608
      8  OE1       41.1290   24.9220   57.9850 O.2    19  GLN19      -0.2717
      9  NE2       40.7850   26.6020   59.4580 N.am   19  GLN19      -0.0878
     10  N         41.9880   25.8140   63.9730 N.3    23  GLY23      -0.1225
     11  CA        42.9330   26.2550   62.9460 C.3    23  GLY23       0.1811
     12  C         43.8100   25.1030   62.4590 C.2    23  GLY23       0.2280
     13  O         45.0160   25.0870   62.6820 O.2    23  GLY23      -0.2866
     14  N         44.1610   24.1370   59.1770 N.3    25  CYS25      -0.1221
     15  CA        44.4010   24.2260   57.7340 C.3    25  CYS25       0.1808
     16  C         45.6820   23.5020   57.3420 C.2    25  CYS25       0.2601
     17  O         45.7550   22.8400   56.2930 O.2    25  CYS25      -0.2717
     18  CB        44.4880   25.7020   57.3140 C.3    25  CYS25       0.0970
     19  SG        45.8790   26.5800   58.0980 S.3    25  CYS25      -0.0800
     20  N         46.6870   23.6270   58.2090 N.am   26  TRP26      -0.1976
     21  CA        47.9920   23.0190   58.0120 C.3    26  TRP26       0.1640
     22  C         47.9060   21.5030   57.9870 C.2    26  TRP26       0.2290
     23  O         48.5770   20.8530   57.1770 O.2    26  TRP26      -0.2864
     24  CB        48.9630   23.4610   59.1280 C.3    26  TRP26       0.0576
     25  CG        48.5420   23.0280   60.5020 C.ar   26  TRP26       0.0006
     26  CD1       47.6300   23.6530   61.3270 C.ar   26  TRP26       0.0946
     27  CD2       49.0060   21.8800   61.2470 C.ar   26  TRP26       0.0152
     28  NE1       47.5120   22.9720   62.5150 N.ar   26  TRP26      -0.2442
     29  CE2       48.3520   21.8840   62.4840 C.ar   26  TRP26       0.0810
     30  CE3       49.9380   20.8640   60.9460 C.ar   26  TRP26       0.0012
     31  CZ2       48.5720   20.8950   63.4610 C.ar   26  TRP26       0.0191
     32  CZ3       50.1640   19.8650   61.9380 C.ar   26  TRP26       0.0001
     33  CH2       49.4870   19.9040   63.1750 C.ar   26  TRP26       0.0015
     34  N         57.0220   21.8060   66.4830 N.3    62  GLY62      -0.1210
     35  CA        56.7820   23.2390   66.3790 C.3    62  GLY62       0.1956
     36  C         55.3450   23.5930   66.0630 C.2    62  GLY62       0.2612
     37  O         55.0470   24.7310   65.6970 O.2    62  GLY62      -0.2717
     38  N         54.4420   22.6220   66.1890 N.am   63  ASN63      -0.1960
     39  CA        53.0320   22.8690   65.8920 C.3    63  ASN63       0.1819
     40  C         52.2350   23.1460   67.1530 C.2    63  ASN63       0.2621
     41  O         52.6470   22.7740   68.2550 O.2    63  ASN63      -0.2715
     42  CB        52.4430   21.6840   65.1100 C.3    63  ASN63       0.1195
     43  CG        53.1770   21.4540   63.7850 C.2    63  ASN63       0.2630
     44  OD1       53.6610   22.4090   63.1720 O.2    63  ASN63      -0.2716
     45  ND2       53.2710   20.1890   63.3550 N.am   63  ASN63      -0.0877
     46  N         51.0980   23.8100   66.9730 N.am   64  LYS64      -0.1977
     47  CA        50.2390   24.1990   68.0800 C.3    64  LYS64       0.1596
     48  C         48.7890   23.7420   67.9000 C.2    64  LYS64       0.2287
     49  O         47.8610   24.4270   68.3110 O.2    64  LYS64      -0.2864
     50  CB        50.3100   25.7210   68.2420 C.3    64  LYS64       0.0298
     51  CG        51.7380   26.2070   68.5890 C.3    64  LYS64       0.0038
     52  CD        51.8030   27.7190   68.7570 C.3    64  LYS64       0.0206
     53  CE        53.1560   28.1590   69.3040 C.3    64  LYS64       0.1093
     54  NZ        53.0800   29.5390   69.8970 N.3    64  LYS64      -0.1314
     55  N         45.1660   23.2710   67.0970 N.3    66  CYS66      -0.1221
     56  CA        44.1650   24.1920   66.5700 C.3    66  CYS66       0.1808
     57  C         44.6170   25.6380   66.5150 C.2    66  CYS66       0.2601
     58  O         43.8590   26.4840   66.0390 O.2    66  CYS66      -0.2717
     59  CB        42.8730   24.1130   67.3830 C.3    66  CYS66       0.0970
     60  SG        42.0580   22.5190   67.1440 S.3    66  CYS66      -0.0800
     61  N         45.8140   25.9320   67.0190 N.am   67  ASN67      -0.1960
     62  CA        46.3560   27.2830   66.9320 C.3    67  ASN67       0.1819
     63  C         47.3540   27.3860   65.7480 C.2    67  ASN67       0.2622
     64  O         48.0210   28.4060   65.5720 O.2    67  ASN67      -0.2715
     65  CB        47.0530   27.6880   68.2390 C.3    67  ASN67       0.1195
     66  CG        46.0750   28.2370   69.2840 C.2    67  ASN67       0.2630
     67  OD1       46.4010   28.3180   70.4720 O.2    67  ASN67      -0.2716
     68  ND2       44.8810   28.6110   68.8480 N.am   67  ASN67      -0.0877
     69  N         47.4900   26.3280   64.9570 N.am   68  GLY68      -0.1940
     70  CA        48.3650   26.4280   63.7950 C.3    68  GLY68       0.2014
     71  C         49.5290   25.4640   63.7260 C.2    68  GLY68       0.2639
     72  O         49.9570   24.9160   64.7400 O.2    68  GLY68      -0.2714
     73  N         50.0510   25.2470   62.5230 N.am   69  GLY69      -0.1939
     74  CA        51.1690   24.3320   62.3790 C.3    69  GLY69       0.2014
     75  C         51.8120   24.4030   61.0060 C.2    69  GLY69       0.2639
     76  O         51.4780   25.2870   60.2060 O.2    69  GLY69      -0.2714
     77  N         52.7250   23.4680   60.7350 N.am   70  PHE70      -0.1959
     78  CA        53.4570   23.4150   59.4720 C.3    70  PHE70       0.1771
     79  C         53.2610   22.1030   58.7180 C.2    70  PHE70       0.2619
     80  O         53.2960   21.0190   59.3060 O.2    70  PHE70      -0.2715
     81  CB        54.9620   23.6000   59.7250 C.3    70  PHE70       0.0574
     82  CG        55.3040   24.8880   60.4140 C.ar   70  PHE70      -0.0200
     83  CD1       55.7260   24.9060   61.7430 C.ar   70  PHE70      -0.0042
     84  CD2       55.2160   26.0880   59.7240 C.ar   70  PHE70      -0.0042
     85  CE1       56.0600   26.1240   62.3780 C.ar   70  PHE70      -0.0003
     86  CE2       55.5500   27.3150   60.3460 C.ar   70  PHE70      -0.0003
     87  CZ        55.9730   27.3290   61.6760 C.ar   70  PHE70      -0.0000
     88  N         53.0700   22.2020   57.4070 N.am   71  MET71      -0.1977
     89  CA        52.9110   20.9950   56.6030 C.3    71  MET71       0.1605
     90  C         54.2080   20.1730   56.5780 C.2    71  MET71       0.2287
     91  O         54.1750   18.9340   56.6730 O.2    71  MET71      -0.2864
     92  CB        52.4730   21.3610   55.1750 C.3    71  MET71       0.0413
     93  CG        50.9920   21.8730   55.1200 C.3    71  MET71       0.0598
     94  SD        50.8900   23.6300   55.4620 S.3    71  MET71      -0.1393
     95  CE        51.6630   24.2950   53.8970 C.3    71  MET71       0.0692
     96  N         51.4420   27.6750   51.5160 N.3   137  GLY137     -0.1225
     97  CA        50.8800   28.6460   52.4350 C.3   137  GLY137      0.1811
     98  C         50.5060   29.8890   51.6320 C.2   137  GLY137      0.2280
     99  O         51.2130   30.2600   50.6800 O.2   137  GLY137     -0.2866
    100  N         52.4890   34.7760   54.3530 N.3   162  VAL162     -0.1231
    101  CA        51.4620   33.7420   54.3520 C.3   162  VAL162      0.1692
    102  C         51.0910   33.2440   55.7600 C.2   162  VAL162      0.2592
    103  O         51.9240   33.2260   56.6780 O.2   162  VAL162     -0.2718
    104  CB        51.9310   32.5460   53.4960 C.3   162  VAL162      0.0266
    105  CG1       52.2430   33.0190   52.0590 C.3   162  VAL162      0.0020
    106  CG2       53.1840   31.9320   54.1240 C.3   162  VAL162      0.0020
    107  N         49.8580   32.7770   55.9080 N.am  163  ASN163     -0.1960
    108  CA        49.3800   32.3240   57.2130 C.3   163  ASN163      0.1819
    109  C         48.3840   31.1930   57.1140 C.2   163  ASN163      0.2621
    110  O         47.9410   30.6860   58.1390 O.2   163  ASN163     -0.2715
    111  CB        48.6770   33.4990   57.8820 C.3   163  ASN163      0.1195
    112  CG        47.8040   34.2490   56.8890 C.2   163  ASN163      0.2630
    113  OD1       46.8440   33.6930   56.3480 O.2   163  ASN163     -0.2716
    114  ND2       48.1720   35.5070   56.5970 N.am  163  ASN163     -0.0877
    115  N         48.0410   30.7850   55.8970 N.am  164  HIS164     -0.1959
    116  CA        46.9940   29.7760   55.7110 C.3   164  HIS164      0.1787
    117  C         47.4410   28.6140   54.8340 C.2   164  HIS164      0.2620
    118  O         47.7590   28.8020   53.6690 O.2   164  HIS164     -0.2715
    119  CB        45.7600   30.4840   55.1100 C.3   164  HIS164      0.0785
    120  CG        44.5120   29.6620   55.1360 C.ar  164  HIS164      0.0821
    121  ND1       43.8500   29.3290   56.2980 N.ar  164  HIS164     -0.2267
    122  CD2       43.8160   29.0800   54.1230 C.ar  164  HIS164      0.1154
    123  CE1       42.8080   28.5760   56.0090 C.ar  164  HIS164      0.1986
    124  NE2       42.7590   28.4070   54.7010 N.ar  164  HIS164     -0.2212
    125  N         47.4730   27.4110   55.4080 N.am  165  GLY165     -0.1954
    126  CA        47.9060   26.2400   54.6520 C.3   165  GLY165      0.1869
    127  C         46.7950   25.6890   53.7640 C.2   165  GLY165      0.2309
    128  O         45.6530   25.5290   54.2210 O.2   165  GLY165     -0.2863
    129  N         56.1890   29.0020   50.1420 N.3   211  PHE211     -0.1241
    130  CA        56.6250   27.8260   50.8760 C.3   211  PHE211      0.1605
    131  C         55.9220   26.5240   50.4660 C.2   211  PHE211      0.2264
    132  O         55.1320   25.9690   51.2250 O.2   211  PHE211     -0.2867
    133  CB        56.4280   28.0780   52.3820 C.3   211  PHE211      0.0534
    134  CG        57.2170   29.2510   52.9120 C.ar  211  PHE211     -0.0203
    135  CD1       56.6050   30.4950   53.1020 C.ar  211  PHE211     -0.0042
    136  CD2       58.5750   29.1100   53.2380 C.ar  211  PHE211     -0.0042
    137  CE1       57.3280   31.5980   53.6060 C.ar  211  PHE211     -0.0003
    138  CE2       59.3060   30.2040   53.7430 C.ar  211  PHE211     -0.0003
    139  CZ        58.6730   31.4490   53.9250 C.ar  211  PHE211     -0.0000
@<TRIPOS>BOND
     1   129   130    1
     2   131   130    1
     3   131   132    2
     4    99    98    2
     5   130   133    1
     6    96    97    1
     7    98    97    1
     8   105   104    1
     9   133   134    1
    10   134   135   ar
    11   134   136   ar
    12   135   137   ar
    13   136   138   ar
    14   104   106    1
    15   104   101    1
    16   137   139   ar
    17   118   117    2
    18   138   139   ar
    19   127   128    2
    20   127   126    1
    21    95    94    1
    22   122   124   ar
    23   122   120   ar
    24   101   100    1
    25   101   102    1
    26   126   125    1
    27   124   123   ar
    28   117   125   am
    29   117   116    1
    30   119   120    1
    31   119   116    1
    32    93    92    1
    33    93    94    1
    34   120   121   ar
    35    92    89    1
    36   116   115    1
    37   102   107   am
    38   102   103    2
    39   115   109   am
    40   107   108    1
    41   123   121   ar
    42    17    16    2
    43   113   112    2
    44    90    89    1
    45    90    91    2
    46   114   112   am
    47    89    88    1
    48   112   111    1
    49   109   108    1
    50   109   110    2
    51    23    22    2
    52   108   111    1
    53    18    15    1
    54    18    19    1
    55    16    15    1
    56    16    20   am
    57    88    79   am
    58    15    14    1
    59     8     7    2
    60    22    21    1
    61    21    20    1
    62    21    24    1
    63     1     2    1
    64    79    80    2
    65    79    78    1
    66     7     6    1
    67     7     9   am
    68    24    25    1
    69     6     5    1
    70    78    81    1
    71    78    77    1
    72     5     2    1
    73    84    86   ar
    74    84    82   ar
    75    81    82    1
    76     2     3    1
    77    76    75    2
    78    86    87   ar
    79    82    83   ar
    80    25    27   ar
    81    25    26   ar
    82    77    75   am
    83    30    27   ar
    84    30    32   ar
    85     3     4    2
    86    75    74    1
    87    27    29   ar
    88    26    28   ar
    89    87    85   ar
    90    83    85   ar
    91    32    33   ar
    92    74    73    1
    93    12    13    2
    94    12    11    1
    95    29    28   ar
    96    29    31   ar
    97    73    71   am
    98    11    10    1
    99    44    43    2
   100    33    31   ar
   101    45    43   am
   102    71    70    1
   103    71    72    2
   104    43    42    1
   105    70    69    1
   106    69    63   am
   107    42    39    1
   108    64    63    2
   109    37    36    2
   110    63    62    1
   111    39    38    1
   112    39    40    1
   113    58    57    2
   114    36    38   am
   115    36    35    1
   116    35    34    1
   117    57    56    1
   118    57    61   am
   119    56    55    1
   120    56    59    1
   121    62    61    1
   122    62    65    1
   123    46    40   am
   124    46    47    1
   125    60    59    1
   126    40    41    2
   127    48    47    1
   128    48    49    2
   129    47    50    1
   130    65    66    1
   131    50    51    1
   132    51    52    1
   133    52    53    1
   134    68    66   am
   135    66    67    2
   136    53    54    1
