@<TRIPOS>MOLECULE
tmp/2r9nB00.pdb
 172 168 0 0 0
SMALL
GASTEIGER

@<TRIPOS>ATOM
      1  N         37.2280   22.5510   58.2990 N.3    19  GLN19      -0.1245
      2  CA        38.0200   22.6560   59.5320 C.3    19  GLN19       0.1566
      3  C         37.2790   23.2800   60.7090 C.2    19  GLN19       0.2260
      4  O         37.6460   23.0820   61.8650 O.2    19  GLN19      -0.2867
      5  CB        39.3490   23.4040   59.2730 C.3    19  GLN19       0.0367
      6  CG        39.2310   24.9130   59.0370 C.3    19  GLN19       0.0905
      7  CD        40.5750   25.5520   58.6430 C.2    19  GLN19       0.2608
      8  OE1       41.1900   25.1760   57.6500 O.2    19  GLN19      -0.2717
      9  NE2       41.0180   26.5230   59.4250 N.am   19  GLN19      -0.0878
     10  N         42.0680   25.9060   63.8080 N.3    23  GLY23      -0.1225
     11  CA        43.0410   26.3200   62.8020 C.3    23  GLY23       0.1811
     12  C         43.9290   25.1710   62.3360 C.2    23  GLY23       0.2280
     13  O         45.1550   25.1600   62.5640 O.2    23  GLY23      -0.2866
     14  N         44.2390   24.1850   59.0690 N.3    25  CYS25      -0.1221
     15  CA        44.4610   24.2720   57.6260 C.3    25  CYS25       0.1808
     16  C         45.7470   23.5380   57.2220 C.2    25  CYS25       0.2601
     17  O         45.7970   22.8700   56.1820 O.2    25  CYS25      -0.2717
     18  CB        44.5390   25.7420   57.1940 C.3    25  CYS25       0.0970
     19  SG        45.9610   26.5920   57.9510 S.3    25  CYS25      -0.0800
     20  N         46.7710   23.6560   58.0650 N.am   26  TRP26      -0.1976
     21  CA        48.0760   23.0180   57.8300 C.3    26  TRP26       0.1640
     22  C         47.9480   21.4920   57.8430 C.2    26  TRP26       0.2290
     23  O         48.5990   20.8020   57.0630 O.2    26  TRP26      -0.2864
     24  CB        49.0880   23.4550   58.9110 C.3    26  TRP26       0.0576
     25  CG        48.6650   23.0780   60.2910 C.ar   26  TRP26       0.0006
     26  CD1       47.7930   23.7580   61.0970 C.ar   26  TRP26       0.0946
     27  CD2       49.0850   21.9260   61.0350 C.ar   26  TRP26       0.0152
     28  NE1       47.6470   23.1040   62.2960 N.ar   26  TRP26      -0.2442
     29  CE2       48.4310   21.9750   62.2850 C.ar   26  TRP26       0.0810
     30  CE3       49.9580   20.8560   60.7660 C.ar   26  TRP26       0.0012
     31  CZ2       48.6130   21.0030   63.2670 C.ar   26  TRP26       0.0191
     32  CZ3       50.1460   19.8820   61.7540 C.ar   26  TRP26       0.0001
     33  CH2       49.4750   19.9660   62.9880 C.ar   26  TRP26       0.0015
     34  N         57.0780   21.8630   66.3320 N.3    62  GLY62      -0.1225
     35  CA        56.8490   23.3010   66.2210 C.3    62  GLY62       0.1811
     36  C         55.4100   23.6520   65.8750 C.2    62  GLY62       0.2280
     37  O         55.1160   24.7830   65.4890 O.2    62  GLY62      -0.2866
     38  N         51.1360   23.8680   66.7350 N.3    64  LYS64      -0.1245
     39  CA        50.2810   24.2410   67.8490 C.3    64  LYS64       0.1561
     40  C         48.8150   23.8110   67.7080 C.2    64  LYS64       0.2260
     41  O         47.9140   24.5100   68.1750 O.2    64  LYS64      -0.2867
     42  CB        50.3660   25.7550   68.0520 C.3    64  LYS64       0.0271
     43  CG        51.8100   26.2310   68.3010 C.3    64  LYS64       0.0035
     44  CD        51.9100   27.7360   68.4970 C.3    64  LYS64       0.0206
     45  CE        53.3110   28.1350   68.9610 C.3    64  LYS64       0.1093
     46  NZ        53.3190   29.4390   69.7120 N.3    64  LYS64      -0.1314
     47  N         45.1560   23.4060   66.9740 N.3    66  CYS66      -0.1221
     48  CA        44.1620   24.3340   66.4330 C.3    66  CYS66       0.1808
     49  C         44.6630   25.7650   66.3740 C.2    66  CYS66       0.2601
     50  O         43.9610   26.6430   65.8760 O.2    66  CYS66      -0.2717
     51  CB        42.8710   24.2840   67.2480 C.3    66  CYS66       0.0970
     52  SG        41.9940   22.7110   67.0140 S.3    66  CYS66      -0.0800
     53  N         45.8680   26.0070   66.8850 N.am   67  ASN67      -0.1960
     54  CA        46.4360   27.3400   66.8320 C.3    67  ASN67       0.1819
     55  C         47.4510   27.4660   65.6800 C.2    67  ASN67       0.2622
     56  O         48.1370   28.4830   65.5560 O.2    67  ASN67      -0.2715
     57  CB        47.0940   27.6920   68.1720 C.3    67  ASN67       0.1195
     58  CG        46.1230   28.3640   69.1440 C.2    67  ASN67       0.2630
     59  OD1       46.4460   28.5780   70.3130 O.2    67  ASN67      -0.2716
     60  ND2       44.9310   28.6920   68.6640 N.am   67  ASN67      -0.0877
     61  N         47.5720   26.4330   64.8480 N.am   68  GLY68      -0.1940
     62  CA        48.4840   26.5540   63.7180 C.3    68  GLY68       0.2014
     63  C         49.6270   25.5680   63.6360 C.2    68  GLY68       0.2639
     64  O         50.0340   24.9960   64.6390 O.2    68  GLY68      -0.2714
     65  N         50.1550   25.3760   62.4310 N.am   69  GLY69      -0.1939
     66  CA        51.2490   24.4310   62.2660 C.3    69  GLY69       0.2014
     67  C         51.8570   24.4660   60.8810 C.2    69  GLY69       0.2639
     68  O         51.4960   25.3160   60.0660 O.2    69  GLY69      -0.2714
     69  N         52.7720   23.5320   60.6070 N.am   70  PHE70      -0.1959
     70  CA        53.4610   23.4700   59.3190 C.3    70  PHE70       0.1771
     71  C         53.2280   22.1670   58.5580 C.2    70  PHE70       0.2619
     72  O         53.2010   21.0870   59.1600 O.2    70  PHE70      -0.2715
     73  CB        54.9780   23.6240   59.5180 C.3    70  PHE70       0.0574
     74  CG        55.3760   24.8940   60.2150 C.ar   70  PHE70      -0.0200
     75  CD1       55.8040   24.8690   61.5370 C.ar   70  PHE70      -0.0042
     76  CD2       55.3210   26.1110   59.5470 C.ar   70  PHE70      -0.0042
     77  CE1       56.1790   26.0470   62.1950 C.ar   70  PHE70      -0.0003
     78  CE2       55.6950   27.3020   60.1950 C.ar   70  PHE70      -0.0003
     79  CZ        56.1250   27.2640   61.5240 C.ar   70  PHE70      -0.0000
     80  N         53.0930   22.2640   57.2400 N.am   71  MET71      -0.1977
     81  CA        52.9100   21.0630   56.4340 C.3    71  MET71       0.1605
     82  C         54.1960   20.2330   56.4190 C.2    71  MET71       0.2287
     83  O         54.1490   19.0000   56.5100 O.2    71  MET71      -0.2864
     84  CB        52.5170   21.4260   54.9980 C.3    71  MET71       0.0413
     85  CG        51.0680   21.9230   54.8770 C.3    71  MET71       0.0598
     86  SD        50.9080   23.6810   55.2490 S.3    71  MET71      -0.1393
     87  CE        51.6110   24.3920   53.7180 C.3    71  MET71       0.0692
     88  N         51.5130   27.6600   51.2880 N.3   137  GLY137     -0.1225
     89  CA        51.0020   28.6370   52.2330 C.3   137  GLY137      0.1811
     90  C         50.6190   29.8560   51.3940 C.2   137  GLY137      0.2280
     91  O         51.2890   30.1610   50.3940 O.2   137  GLY137     -0.2866
     92  N         45.9670   34.7330   53.1490 N.3   140  ALA140     -0.1231
     93  CA        44.5190   34.6970   53.0600 C.3   140  ALA140      0.1694
     94  C         43.9180   35.6930   54.0510 C.2   140  ALA140      0.2591
     95  O         42.7260   35.6390   54.3280 O.2   140  ALA140     -0.2718
     96  CB        44.0100   33.2840   53.3720 C.3   140  ALA140      0.0304
     97  N         44.7520   36.5910   54.5700 N.am  141  ARG141     -0.1980
     98  CA        44.3290   37.5980   55.5500 C.3   141  ARG141      0.1597
     99  C         43.6860   38.8430   54.9320 C.2   141  ARG141      0.2287
    100  O         44.0490   39.9630   55.2930 O.2   141  ARG141     -0.2864
    101  CB        45.5320   38.0370   56.4020 C.3   141  ARG141      0.0334
    102  CG        45.8950   37.0650   57.5420 C.3   141  ARG141      0.0492
    103  CD        46.7680   37.7340   58.6170 C.3   141  ARG141      0.2205
    104  NE        45.9700   38.5630   59.5210 N.pl3 141  ARG141     -0.0865
    105  CZ        45.9140   39.8920   59.4600 C.cat 141  ARG141      0.5346
    106  NH1       46.6170   40.5400   58.5340 N.pl3 141  ARG141      0.1354
    107  NH2       45.1350   40.5730   60.3010 N.pl3 141  ARG141      0.1354
    108  N         37.9310   35.6830   51.9970 N.3   146  PHE146     -0.1241
    109  CA        36.7750   35.1200   52.6880 C.3   146  PHE146      0.1605
    110  C         35.5160   35.2460   51.8210 C.2   146  PHE146      0.2264
    111  O         34.6320   34.3980   51.8810 O.2   146  PHE146     -0.2867
    112  CB        36.5400   35.8510   54.0110 C.3   146  PHE146      0.0534
    113  CG        37.5340   35.5050   55.0780 C.ar  146  PHE146     -0.0203
    114  CD1       38.7400   36.1960   55.1760 C.ar  146  PHE146     -0.0042
    115  CD2       37.2630   34.5000   55.9900 C.ar  146  PHE146     -0.0042
    116  CE1       39.6640   35.8850   56.1820 C.ar  146  PHE146     -0.0003
    117  CE2       38.1790   34.1850   56.9980 C.ar  146  PHE146     -0.0003
    118  CZ        39.3840   34.8850   57.0890 C.ar  146  PHE146     -0.0000
    119  N         52.6860   34.7590   54.0970 N.3   162  VAL162     -0.1231
    120  CA        51.6590   33.7180   54.1110 C.3   162  VAL162      0.1692
    121  C         51.2300   33.2890   55.5030 C.2   162  VAL162      0.2592
    122  O         52.0120   33.3400   56.4570 O.2   162  VAL162     -0.2718
    123  CB        52.1370   32.5040   53.3030 C.3   162  VAL162      0.0266
    124  CG1       52.4480   32.9470   51.8750 C.3   162  VAL162      0.0020
    125  CG2       53.3930   31.9060   53.9620 C.3   162  VAL162      0.0020
    126  N         49.9940   32.8200   55.6150 N.am  163  ASN163     -0.1960
    127  CA        49.4640   32.4720   56.9310 C.3   163  ASN163      0.1819
    128  C         48.4060   31.3830   56.9000 C.2   163  ASN163      0.2621
    129  O         47.8750   31.0230   57.9500 O.2   163  ASN163     -0.2715
    130  CB        48.8290   33.7320   57.4900 C.3   163  ASN163      0.1195
    131  CG        48.0630   34.4850   56.4050 C.2   163  ASN163      0.2630
    132  OD1       47.1020   33.9520   55.8310 O.2   163  ASN163     -0.2716
    133  ND2       48.5090   35.7020   56.0820 N.am  163  ASN163     -0.0877
    134  N         48.1030   30.8630   55.7110 N.am  164  HIS164     -0.1959
    135  CA        47.0400   29.8590   55.5420 C.3   164  HIS164      0.1787
    136  C         47.5100   28.7140   54.6450 C.2   164  HIS164      0.2620
    137  O         47.8940   28.9360   53.4960 O.2   164  HIS164     -0.2715
    138  CB        45.8120   30.5590   54.9230 C.3   164  HIS164      0.0785
    139  CG        44.6120   29.6800   54.7820 C.ar  164  HIS164      0.0821
    140  ND1       44.0310   29.0310   55.8520 N.ar  164  HIS164     -0.2267
    141  CD2       43.8730   29.3520   53.6960 C.ar  164  HIS164      0.1154
    142  CE1       42.9860   28.3400   55.4310 C.ar  164  HIS164      0.1986
    143  NE2       42.8660   28.5180   54.1280 N.ar  164  HIS164     -0.2212
    144  N         47.4950   27.4970   55.1860 N.am  165  GLY165     -0.1954
    145  CA        47.9400   26.3380   54.4240 C.3   165  GLY165      0.1869
    146  C         46.8480   25.7480   53.5530 C.2   165  GLY165      0.2309
    147  O         45.7430   25.5000   54.0450 O.2   165  GLY165     -0.2863
    148  N         37.7540   24.8100   54.1120 N.3   186  TRP186     -0.1241
    149  CA        36.6960   25.6060   54.7240 C.3   186  TRP186      0.1605
    150  C         35.3060   25.1090   54.3080 C.2   186  TRP186      0.2264
    151  O         34.3470   25.8900   54.2470 O.2   186  TRP186     -0.2867
    152  CB        36.8560   27.0740   54.3230 C.3   186  TRP186      0.0550
    153  CG        37.9650   27.8170   55.0430 C.ar  186  TRP186      0.0003
    154  CD1       38.8090   27.3220   55.9990 C.ar  186  TRP186      0.0946
    155  CD2       38.3530   29.1850   54.8330 C.ar  186  TRP186      0.0152
    156  NE1       39.7040   28.3000   56.4010 N.ar  186  TRP186     -0.2442
    157  CE2       39.4440   29.4520   55.7020 C.ar  186  TRP186      0.0810
    158  CE3       37.8840   30.2140   53.9950 C.ar  186  TRP186      0.0012
    159  CZ2       40.0790   30.7110   55.7570 C.ar  186  TRP186      0.0191
    160  CZ3       38.5200   31.4740   54.0490 C.ar  186  TRP186      0.0001
    161  CH2       39.6050   31.7020   54.9280 C.ar  186  TRP186      0.0015
    162  N         56.3340   28.9910   49.9480 N.3   211  PHE211     -0.1241
    163  CA        56.7830   27.8010   50.6550 C.3   211  PHE211      0.1605
    164  C         56.0430   26.5220   50.2340 C.2   211  PHE211      0.2264
    165  O         55.2320   25.9920   50.9890 O.2   211  PHE211     -0.2867
    166  CB        56.6220   28.0220   52.1610 C.3   211  PHE211      0.0534
    167  CG        57.3980   29.2060   52.6920 C.ar  211  PHE211     -0.0203
    168  CD1       56.7690   30.4430   52.8840 C.ar  211  PHE211     -0.0042
    169  CD2       58.7550   29.0840   53.0050 C.ar  211  PHE211     -0.0042
    170  CE1       57.4740   31.5490   53.3820 C.ar  211  PHE211     -0.0003
    171  CE2       59.4750   30.1890   53.5030 C.ar  211  PHE211     -0.0003
    172  CZ        58.8250   31.4240   53.6900 C.ar  211  PHE211     -0.0000
@<TRIPOS>BOND
     1   162   163    1
     2   164   163    1
     3   164   165    2
     4    91    90    2
     5   163   166    1
     6    88    89    1
     7    90    89    1
     8   110   111    2
     9   110   109    1
    10   124   123    1
    11   108   109    1
    12   166   167    1
    13   109   112    1
    14   167   168   ar
    15   167   169   ar
    16   168   170   ar
    17   169   171   ar
    18    93    92    1
    19    93    96    1
    20    93    94    1
    21   123   125    1
    22   123   120    1
    23   170   172   ar
    24   137   136    2
    25   171   172   ar
    26   146   147    2
    27   146   145    1
    28   141   143   ar
    29   141   139   ar
    30    87    86    1
    31   158   160   ar
    32   158   155   ar
    33   112   113    1
    34   160   161   ar
    35    94    95    2
    36    94    97   am
    37   119   120    1
    38   120   121    1
    39   148   149    1
    40   143   142   ar
    41   151   150    2
    42   150   149    1
    43   152   149    1
    44   152   153    1
    45   145   144    1
    46    97    98    1
    47   136   144   am
    48   136   135    1
    49   139   138    1
    50   139   140   ar
    51   155   153   ar
    52   155   157   ar
    53    85    84    1
    54    85    86    1
    55   138   135    1
    56   161   159   ar
    57    99   100    2
    58    99    98    1
    59    84    81    1
    60   153   154   ar
    61   113   114   ar
    62   113   115   ar
    63   114   116   ar
    64   142   140   ar
    65   121   126   am
    66   121   122    2
    67   135   134    1
    68    98   101    1
    69   126   127    1
    70   157   159   ar
    71   157   156   ar
    72   134   128   am
    73   132   131    2
    74   115   117   ar
    75   154   156   ar
    76   133   131   am
    77   116   118   ar
    78    17    16    2
    79   101   102    1
    80   131   130    1
    81    82    81    1
    82    82    83    2
    83    81    80    1
    84   128   127    1
    85   128   129    2
    86   127   130    1
    87   117   118   ar
    88    23    22    2
    89    18    15    1
    90    18    19    1
    91    16    15    1
    92    16    20   am
    93    80    71   am
    94   102   103    1
    95    15    14    1
    96     8     7    2
    97    21    22    1
    98    21    20    1
    99    21    24    1
   100     1     2    1
   101   106   105    1
   102    71    72    2
   103    71    70    1
   104   103   104    1
   105     7     6    1
   106     7     9   am
   107    24    25    1
   108     6     5    1
   109     5     2    1
   110    70    73    1
   111    70    69    1
   112   105   104    2
   113   105   107    1
   114    73    74    1
   115     2     3    1
   116    76    78   ar
   117    76    74   ar
   118    68    67    2
   119    78    79   ar
   120    74    75   ar
   121    25    27   ar
   122    25    26   ar
   123    69    67   am
   124     3     4    2
   125    30    27   ar
   126    30    32   ar
   127    67    66    1
   128    27    29   ar
   129    26    28   ar
   130    79    77   ar
   131    75    77   ar
   132    32    33   ar
   133    66    65    1
   134    29    28   ar
   135    29    31   ar
   136    12    13    2
   137    12    11    1
   138    65    63   am
   139    11    10    1
   140    33    31   ar
   141    63    62    1
   142    63    64    2
   143    62    61    1
   144    61    55   am
   145    37    36    2
   146    56    55    2
   147    55    54    1
   148    36    35    1
   149    50    49    2
   150    35    34    1
   151    49    48    1
   152    49    53   am
   153    48    47    1
   154    48    51    1
   155    38    39    1
   156    54    53    1
   157    54    57    1
   158    52    51    1
   159    40    39    1
   160    40    41    2
   161    39    42    1
   162    42    43    1
   163    57    58    1
   164    43    44    1
   165    44    45    1
   166    60    58   am
   167    45    46    1
   168    58    59    2
