@<TRIPOS>MOLECULE
tmp/2r9oA00.pdb
 172 168 0 0 0
SMALL
GASTEIGER

@<TRIPOS>ATOM
      1  N         74.6810   42.5640   66.3540 N.3    19  GLN19      -0.1245
      2  CA        73.4650   43.0400   65.7070 C.3    19  GLN19       0.1566
      3  C         72.8090   44.2290   66.3860 C.2    19  GLN19       0.2260
      4  O         72.0310   44.9400   65.7520 O.2    19  GLN19      -0.2867
      5  CB        72.4470   41.8960   65.5700 C.3    19  GLN19       0.0367
      6  CG        71.6710   41.5600   66.8290 C.3    19  GLN19       0.0905
      7  CD        70.7720   40.3520   66.6270 C.2    19  GLN19       0.2608
      8  OE1       71.2480   39.2530   66.3580 O.2    19  GLN19      -0.2717
      9  NE2       69.4670   40.5540   66.7430 N.am   19  GLN19      -0.0878
     10  N         66.6350   43.3920   64.9830 N.3    23  GLY23      -0.1225
     11  CA        66.4330   41.9520   64.9070 C.3    23  GLY23       0.1811
     12  C         66.8550   41.3750   63.5700 C.2    23  GLY23       0.2280
     13  O         66.0240   40.8630   62.8040 O.2    23  GLY23      -0.2866
     14  N         69.1970   38.8950   63.2280 N.3    25  CYS25      -0.1221
     15  CA        69.8740   37.6200   63.4190 C.3    25  CYS25       0.1808
     16  C         69.7760   36.7580   62.1520 C.2    25  CYS25       0.2601
     17  O         70.7410   36.1020   61.7570 O.2    25  CYS25      -0.2717
     18  CB        69.2570   36.8700   64.6040 C.3    25  CYS25       0.0970
     19  SG        67.4930   36.4940   64.3580 S.3    25  CYS25      -0.0800
     20  N         68.6060   36.7550   61.5240 N.am   26  TRP26      -0.1976
     21  CA        68.4010   35.9560   60.3210 C.3    26  TRP26       0.1640
     22  C         69.3800   36.3680   59.2360 C.2    26  TRP26       0.2290
     23  O         69.9020   35.5260   58.5260 O.2    26  TRP26      -0.2864
     24  CB        66.9840   36.1390   59.7920 C.3    26  TRP26       0.0576
     25  CG        66.6520   37.5680   59.5120 C.ar   26  TRP26       0.0006
     26  CD1       66.2610   38.5090   60.4260 C.ar   26  TRP26       0.0946
     27  CD2       66.6520   38.2270   58.2300 C.ar   26  TRP26       0.0152
     28  NE1       66.0180   39.7080   59.7930 N.ar   26  TRP26      -0.2442
     29  CE2       66.2500   39.5630   58.4480 C.ar   26  TRP26       0.0810
     30  CE3       66.9550   37.8160   56.9210 C.ar   26  TRP26       0.0012
     31  CZ2       66.1360   40.4980   57.4020 C.ar   26  TRP26       0.0191
     32  CZ3       66.8430   38.7440   55.8790 C.ar   26  TRP26       0.0001
     33  CH2       66.4380   40.0710   56.1290 C.ar   26  TRP26       0.0015
     34  N         59.0690   37.9430   52.3550 N.3    62  GLY62      -0.1225
     35  CA        58.4150   37.6640   53.6270 C.3    62  GLY62       0.1811
     36  C         59.2420   38.1260   54.8190 C.2    62  GLY62       0.2280
     37  O         58.9770   37.7530   55.9710 O.2    62  GLY62      -0.2866
     38  N         61.0850   41.1890   57.3070 N.3    64  LYS64      -0.1245
     39  CA        60.7410   42.4770   57.8910 C.3    64  LYS64       0.1561
     40  C         61.9250   43.2250   58.5000 C.2    64  LYS64       0.2260
     41  O         61.7830   43.9580   59.4820 O.2    64  LYS64      -0.2867
     42  CB        59.6450   42.2800   58.9430 C.3    64  LYS64       0.0271
     43  CG        58.3830   41.6020   58.3980 C.3    64  LYS64       0.0035
     44  CD        57.4120   41.2460   59.5130 C.3    64  LYS64       0.0206
     45  CE        56.2240   40.4230   58.9990 C.3    64  LYS64       0.1093
     46  NZ        55.0320   40.6090   59.8880 N.3    64  LYS64      -0.1314
     47  N         64.7100   44.7390   60.5210 N.3    66  CYS66      -0.1221
     48  CA        65.0410   44.7450   61.9400 C.3    66  CYS66       0.1808
     49  C         63.9620   44.0870   62.7680 C.2    66  CYS66       0.2601
     50  O         64.1350   43.9350   63.9700 O.2    66  CYS66      -0.2717
     51  CB        65.2710   46.1740   62.4460 C.3    66  CYS66       0.0970
     52  SG        66.8500   46.8660   61.8860 S.3    66  CYS66      -0.0800
     53  N         62.8530   43.7020   62.1230 N.am   67  ASN67      -0.1960
     54  CA        61.7700   43.0510   62.8410 C.3    67  ASN67       0.1819
     55  C         61.6670   41.5550   62.4960 C.2    67  ASN67       0.2622
     56  O         60.6450   40.9170   62.7180 O.2    67  ASN67      -0.2715
     57  CB        60.4330   43.7790   62.5950 C.3    67  ASN67       0.1195
     58  CG        60.3340   45.0900   63.3830 C.2    67  ASN67       0.2630
     59  OD1       60.3340   46.1860   62.7990 O.2    67  ASN67      -0.2716
     60  ND2       60.2710   44.9840   64.7140 N.am   67  ASN67      -0.0877
     61  N         62.7360   40.9980   61.9400 N.am   68  GLY68      -0.1940
     62  CA        62.7350   39.5780   61.6640 C.3    68  GLY68       0.2014
     63  C         62.7580   39.1560   60.2200 C.2    68  GLY68       0.2639
     64  O         62.3380   39.9000   59.3300 O.2    68  GLY68      -0.2714
     65  N         63.2490   37.9440   59.9960 N.am   69  GLY69      -0.1939
     66  CA        63.3340   37.4100   58.6500 C.3    69  GLY69       0.2014
     67  C         63.6860   35.9300   58.6370 C.2    69  GLY69       0.2639
     68  O         63.7680   35.2860   59.6920 O.2    69  GLY69      -0.2714
     69  N         63.9000   35.3980   57.4360 N.am   70  PHE70      -0.1959
     70  CA        64.2160   33.9930   57.2340 C.3    70  PHE70       0.1771
     71  C         65.5380   33.8290   56.4730 C.2    70  PHE70       0.2619
     72  O         65.8120   34.5510   55.5100 O.2    70  PHE70      -0.2715
     73  CB        63.1060   33.3290   56.4180 C.3    70  PHE70       0.0574
     74  CG        61.7510   33.4100   57.0560 C.ar   70  PHE70      -0.0200
     75  CD1       60.7470   34.1770   56.4780 C.ar   70  PHE70      -0.0042
     76  CD2       61.4630   32.6790   58.2120 C.ar   70  PHE70      -0.0042
     77  CE1       59.4590   34.2180   57.0260 C.ar   70  PHE70      -0.0003
     78  CE2       60.1650   32.7140   58.7730 C.ar   70  PHE70      -0.0003
     79  CZ        59.1660   33.4900   58.1680 C.ar   70  PHE70      -0.0000
     80  N         66.3240   32.8400   56.8730 N.am   71  MET71      -0.1977
     81  CA        67.5930   32.6050   56.2040 C.3    71  MET71       0.1605
     82  C         67.3580   32.0800   54.7890 C.2    71  MET71       0.2287
     83  O         68.0210   32.5120   53.8470 O.2    71  MET71      -0.2864
     84  CB        68.4460   31.6100   57.0050 C.3    71  MET71       0.0413
     85  CG        69.0560   32.2140   58.2680 C.3    71  MET71       0.0598
     86  SD        67.9330   32.1400   59.7030 S.3    71  MET71      -0.1393
     87  CE        68.0000   30.4560   60.0750 C.3    71  MET71       0.0692
     88  N         67.6490   27.8050   63.3130 N.3   137  GLY137     -0.1225
     89  CA        66.8940   28.6450   64.2210 C.3   137  GLY137      0.1811
     90  C         66.8760   27.9040   65.5510 C.2   137  GLY137      0.2280
     91  O         66.8010   26.6780   65.5740 O.2   137  GLY137     -0.2866
     92  N         65.8810   30.7430   71.6630 N.3   140  ALA140     -0.1231
     93  CA        66.8230   31.4820   72.5110 C.3   140  ALA140      0.1694
     94  C         66.1340   32.4520   73.4570 C.2   140  ALA140      0.2591
     95  O         66.7640   33.3790   73.9480 O.2   140  ALA140     -0.2718
     96  CB        67.8200   32.2610   71.6370 C.3   140  ALA140      0.0304
     97  N         64.8540   32.2470   73.7200 N.am  141  ARG141     -0.1980
     98  CA        64.1370   33.1730   74.5830 C.3   141  ARG141      0.1597
     99  C         64.2470   32.9190   76.0790 C.2   141  ARG141      0.2287
    100  O         63.7060   33.6830   76.8660 O.2   141  ARG141     -0.2864
    101  CB        62.6680   33.2280   74.1770 C.3   141  ARG141      0.0334
    102  CG        61.9860   31.8820   74.0730 C.3   141  ARG141      0.0492
    103  CD        60.5140   32.0410   73.6800 C.3   141  ARG141      0.2205
    104  NE        60.2250   31.4840   72.3560 N.pl3 141  ARG141     -0.0865
    105  CZ        59.6180   32.1520   71.3770 C.cat 141  ARG141      0.5346
    106  NH1       59.2310   33.4070   71.5570 N.pl3 141  ARG141      0.1354
    107  NH2       59.3950   31.5610   70.2140 N.pl3 141  ARG141      0.1354
    108  N         70.8110   33.9940   77.5460 N.3   146  PHE146     -0.1241
    109  CA        71.5370   35.2590   77.5910 C.3   146  PHE146      0.1605
    110  C         72.7330   35.2400   78.5520 C.2   146  PHE146      0.2264
    111  O         73.7170   35.9530   78.3480 O.2   146  PHE146     -0.2867
    112  CB        70.5800   36.3980   78.0110 C.3   146  PHE146      0.0534
    113  CG        69.3100   36.4770   77.1890 C.ar  146  PHE146     -0.0203
    114  CD1       68.1470   35.8310   77.6080 C.ar  146  PHE146     -0.0042
    115  CD2       69.2740   37.2050   75.9990 C.ar  146  PHE146     -0.0042
    116  CE1       66.9650   35.9090   76.8600 C.ar  146  PHE146     -0.0003
    117  CE2       68.1000   37.2890   75.2410 C.ar  146  PHE146     -0.0003
    118  CZ        66.9380   36.6400   75.6710 C.ar  146  PHE146     -0.0000
    119  N         61.2890   27.6860   67.6730 N.3   162  VAL162     -0.1231
    120  CA        62.4520   28.5350   67.4500 C.3   162  VAL162      0.1692
    121  C         62.1450   29.9770   67.0980 C.2   162  VAL162      0.2592
    122  O         61.1380   30.2860   66.4540 O.2   162  VAL162     -0.2718
    123  CB        63.3810   27.9050   66.3980 C.3   162  VAL162      0.0266
    124  CG1       63.6380   26.4630   66.7810 C.3   162  VAL162      0.0020
    125  CG2       62.7600   27.9920   65.0110 C.3   162  VAL162      0.0020
    126  N         63.0340   30.8620   67.5330 N.am  163  ASN163     -0.1960
    127  CA        62.8480   32.2800   67.3220 C.3   163  ASN163      0.1819
    128  C         64.1010   33.0630   66.9800 C.2   163  ASN163      0.2621
    129  O         63.9910   34.2140   66.6180 O.2   163  ASN163     -0.2715
    130  CB        62.2080   32.8990   68.5770 C.3   163  ASN163      0.1195
    131  CG        63.2210   33.1200   69.7200 C.2   163  ASN163      0.2630
    132  OD1       63.2050   34.1600   70.4000 O.2   163  ASN163     -0.2716
    133  ND2       64.0930   32.1530   69.9330 N.am  163  ASN163     -0.0877
    134  N         65.2820   32.4490   67.0870 N.am  164  HIS164     -0.1959
    135  CA        66.5440   33.1640   66.8370 C.3   164  HIS164      0.1787
    136  C         67.4310   32.4940   65.7800 C.2   164  HIS164      0.2620
    137  O         67.7630   31.3260   65.9070 O.2   164  HIS164     -0.2715
    138  CB        67.3020   33.2920   68.1800 C.3   164  HIS164      0.0785
    139  CG        68.5620   34.1090   68.1110 C.ar  164  HIS164      0.0821
    140  ND1       68.6090   35.3720   67.5570 N.ar  164  HIS164     -0.2267
    141  CD2       69.8120   33.8480   68.5620 C.ar  164  HIS164      0.1154
    142  CE1       69.8370   35.8510   67.6680 C.ar  164  HIS164      0.1986
    143  NE2       70.5870   34.9470   68.2740 N.ar  164  HIS164     -0.2212
    144  N         67.8180   33.2500   64.7540 N.am  165  GLY165     -0.1954
    145  CA        68.6460   32.7030   63.6910 C.3   165  GLY165      0.1869
    146  C         70.1180   32.7530   64.0380 C.2   165  GLY165      0.2309
    147  O         70.6250   33.8090   64.3900 O.2   165  GLY165     -0.2863
    148  N         75.6040   38.4740   68.7710 N.3   186  TRP186     -0.1241
    149  CA        75.4070   39.4000   69.8710 C.3   186  TRP186      0.1605
    150  C         76.7740   39.8830   70.3480 C.2   186  TRP186      0.2264
    151  O         76.9620   40.2180   71.5160 O.2   186  TRP186     -0.2867
    152  CB        74.6450   38.7230   71.0220 C.3   186  TRP186      0.0550
    153  CG        73.1870   38.4170   70.7190 C.ar  186  TRP186      0.0003
    154  CD1       72.4690   38.7820   69.5970 C.ar  186  TRP186      0.0946
    155  CD2       72.2900   37.6560   71.5370 C.ar  186  TRP186      0.0152
    156  NE1       71.1830   38.2870   69.6790 N.ar  186  TRP186     -0.2442
    157  CE2       71.0470   37.5940   70.8560 C.ar  186  TRP186      0.0810
    158  CE3       72.4160   37.0160   72.7850 C.ar  186  TRP186      0.0012
    159  CZ2       69.9420   36.9180   71.3810 C.ar  186  TRP186      0.0191
    160  CZ3       71.3190   36.3410   73.3060 C.ar  186  TRP186      0.0001
    161  CH2       70.0970   36.2970   72.6050 C.ar  186  TRP186      0.0015
    162  N         64.9850   23.6730   61.7530 N.3   211  PHE211     -0.1241
    163  CA        64.9910   24.3470   60.4580 C.3   211  PHE211      0.1605
    164  C         66.3810   24.7370   59.9370 C.2   211  PHE211      0.2264
    165  O         66.7300   25.9120   59.9120 O.2   211  PHE211     -0.2867
    166  CB        64.1050   25.5960   60.5350 C.3   211  PHE211      0.0534
    167  CG        62.6580   25.3000   60.8570 C.ar  211  PHE211     -0.0203
    168  CD1       62.1490   25.5550   62.1250 C.ar  211  PHE211     -0.0042
    169  CD2       61.8150   24.7360   59.8960 C.ar  211  PHE211     -0.0042
    170  CE1       60.8250   25.2520   62.4430 C.ar  211  PHE211     -0.0003
    171  CE2       60.4810   24.4270   60.2060 C.ar  211  PHE211     -0.0003
    172  CZ        59.9910   24.6850   61.4810 C.ar  211  PHE211     -0.0000
@<TRIPOS>BOND
     1    34    35    1
     2    35    36    1
     3    83    82    2
     4    82    81    1
     5    36    37    2
     6    72    71    2
     7    32    33   ar
     8    32    30   ar
     9    33    31   ar
    10    81    80    1
    11    81    84    1
    12    73    74    1
    13    73    70    1
    14    71    80   am
    15    71    70    1
    16    75    77   ar
    17    75    74   ar
    18    30    27   ar
    19    84    85    1
    20    77    79   ar
    21    74    76   ar
    22    70    69    1
    23    38    39    1
    24    31    29   ar
    25    69    67   am
    26    39    40    1
    27    39    42    1
    28    79    78   ar
    29    76    78   ar
    30    27    29   ar
    31    27    25   ar
    32    85    86    1
    33    43    42    1
    34    43    44    1
    35    29    28   ar
    36    40    41    2
    37    23    22    2
    38    67    66    1
    39    67    68    2
    40    66    65    1
    41    45    44    1
    42    45    46    1
    43    22    21    1
    44    64    63    2
    45    25    24    1
    46    25    26   ar
    47    86    87    1
    48    24    21    1
    49    28    26   ar
    50   169   171   ar
    51   169   167   ar
    52   165   164    2
    53   164   163    1
    54    65    63   am
    55   171   172   ar
    56    63    62    1
    57    21    20    1
    58   163   166    1
    59   163   162    1
    60    47    48    1
    61   166   167    1
    62   167   168   ar
    63   172   170   ar
    64    20    16   am
    65    62    61    1
    66    17    16    2
    67    52    51    1
    68    48    51    1
    69    48    49    1
    70    61    55   am
    71    53    49   am
    72    53    54    1
    73   168   170   ar
    74    16    15    1
    75    55    56    2
    76    55    54    1
    77    57    54    1
    78    57    58    1
    79    49    50    2
    80    59    58    2
    81    13    12    2
    82    14    15    1
    83    88    89    1
    84    58    60   am
    85    15    18    1
    86    12    11    1
    87   145   146    1
    88   145   144    1
    89   146   147    2
    90    89    90    1
    91    19    18    1
    92   144   136   am
    93    11    10    1
    94   125   123    1
    95    90    91    2
    96     5     2    1
    97     5     6    1
    98     2     1    1
    99     2     3    1
   100     4     3    2
   101   136   137    2
   102   136   135    1
   103     8     7    2
   104   123   124    1
   105   123   120    1
   106   122   121    2
   107   129   128    2
   108     7     9   am
   109     7     6    1
   110   135   134    1
   111   135   138    1
   112   128   134   am
   113   128   127    1
   114   121   120    1
   115   121   126   am
   116   127   126    1
   117   127   130    1
   118   120   119    1
   119   140   142   ar
   120   140   139   ar
   121   142   143   ar
   122   139   138    1
   123   139   141   ar
   124   143   141   ar
   125   130   131    1
   126   148   149    1
   127   154   156   ar
   128   154   153   ar
   129   156   157   ar
   130   131   133   am
   131   131   132    2
   132   149   150    1
   133   149   152    1
   134   107   105    1
   135   150   151    2
   136   153   152    1
   137   153   155   ar
   138   157   159   ar
   139   157   155   ar
   140   105   106    1
   141   105   104    2
   142   159   161   ar
   143   155   158   ar
   144    96    93    1
   145    92    93    1
   146   104   103    1
   147    93    94    1
   148   161   160   ar
   149   158   160   ar
   150    94    97   am
   151    94    95    2
   152   103   102    1
   153    97    98    1
   154   102   101    1
   155   101    98    1
   156    98    99    1
   157   117   118   ar
   158   117   115   ar
   159   118   116   ar
   160   115   113   ar
   161    99   100    2
   162   116   114   ar
   163   113   114   ar
   164   113   112    1
   165   108   109    1
   166   109   112    1
   167   109   110    1
   168   111   110    2
