@<TRIPOS>MOLECULE
tmp/2r9qC00.pdb
 123 119 0 0 0
SMALL
GASTEIGER

@<TRIPOS>ATOM
      1  N          9.4250   29.0620   22.8380 N.3   201  GLU201     -0.1231
      2  CA         9.0850   29.5610   24.1680 C.3   201  GLU201      0.1699
      3  C          9.9160   30.8160   24.4770 C.2   201  GLU201      0.2592
      4  O          9.3640   31.8400   24.8880 O.2   201  GLU201     -0.2718
      5  CB         9.2910   28.4730   25.2400 C.3   201  GLU201      0.0402
      6  CG         8.8380   28.8520   26.6360 C.3   201  GLU201      0.1161
      7  CD         7.3670   28.8160   26.8200 C.2   201  GLU201      0.3649
      8  OE1        6.7130   27.8680   26.3130 O.co2 201  GLU201     -0.2457
      9  OE2        6.9060   29.7080   27.6170 O.co2 201  GLU201     -0.2457
     10  N         11.2240   30.7570   24.2010 N.am  202  ASN202     -0.1974
     11  CA        12.1470   31.8490   24.5570 C.3   202  ASN202      0.1688
     12  C         12.1240   33.1040   23.6600 C.2   202  ASN202      0.2292
     13  O         12.4380   34.1930   24.1220 O.2   202  ASN202     -0.2864
     14  CB        13.5690   31.3050   24.6980 C.3   202  ASN202      0.1181
     15  CG        13.6990   30.2710   25.8400 C.2   202  ASN202      0.2629
     16  OD1       12.8300   30.1740   26.7270 O.2   202  ASN202     -0.2716
     17  ND2       14.7950   29.5010   25.8240 N.am  202  ASN202     -0.0877
     18  N         15.4700   35.6080   18.2810 N.3   205  ILE205     -0.1245
     19  CA        15.4000   36.2620   16.9520 C.3   205  ILE205      0.1561
     20  C         16.7020   36.1150   16.1270 C.2   205  ILE205      0.2260
     21  O         16.7030   36.2390   14.9110 O.2   205  ILE205     -0.2867
     22  CB        14.9670   37.7520   17.0420 C.3   205  ILE205      0.0252
     23  CG1       15.9280   38.5570   17.9350 C.3   205  ILE205      0.0019
     24  CG2       13.5030   37.8490   17.5050 C.3   205  ILE205      0.0019
     25  CD1       16.0810   40.0400   17.5610 C.3   205  ILE205      0.0001
     26  N         24.2350   37.8150   17.9100 N.3   208  ARG208     -0.1245
     27  CA        25.2450   38.8390   17.7690 C.3   208  ARG208      0.1563
     28  C         26.6270   38.2450   18.0170 C.2   208  ARG208      0.2260
     29  O         26.8340   37.5110   18.9800 O.2   208  ARG208     -0.2867
     30  CB        24.9590   39.8860   18.8080 C.3   208  ARG208      0.0307
     31  CG        25.6540   41.1350   18.6630 C.3   208  ARG208      0.0489
     32  CD        24.8480   42.1510   19.3740 C.3   208  ARG208      0.2205
     33  NE        25.4750   42.7180   20.5560 N.pl3 208  ARG208     -0.0865
     34  CZ        24.8050   43.4290   21.4610 C.cat 208  ARG208      0.5346
     35  NH1       25.4610   43.9600   22.4650 N.pl3 208  ARG208      0.1354
     36  NH2       23.4740   43.5780   21.3830 N.pl3 208  ARG208      0.1354
     37  N         26.2490   35.7490   21.0850 N.3   231  GLU231     -0.1231
     38  CA        25.2720   36.1860   22.0630 C.3   231  GLU231      0.1684
     39  C         23.8990   35.9920   21.4530 C.2   231  GLU231      0.2434
     40  O         23.5870   36.6460   20.4710 O.2   231  GLU231     -0.2733
     41  CB        25.4750   37.6500   22.4560 C.3   231  GLU231      0.0402
     42  CG        26.7230   37.8250   23.2740 C.3   231  GLU231      0.1161
     43  CD        26.9900   39.2490   23.8020 C.2   231  GLU231      0.3649
     44  OE1       26.3760   40.2540   23.3090 O.co2 231  GLU231     -0.2457
     45  OE2       27.8630   39.3220   24.7260 O.co2 231  GLU231     -0.2457
     46  N         23.0760   35.0880   22.0260 N.am  232  PRO232     -0.2718
     47  CA        21.7200   34.9160   21.5340 C.3   232  PRO232      0.1535
     48  C         20.9220   36.1880   21.7620 C.2   232  PRO232      0.2598
     49  O         21.1660   36.8860   22.7290 O.2   232  PRO232     -0.2715
     50  CB        21.1820   33.7700   22.4030 C.3   232  PRO232      0.0310
     51  CG        21.9240   33.9080   23.6610 C.3   232  PRO232      0.0237
     52  CD        23.3130   34.2220   23.1890 C.3   232  PRO232      0.0939
     53  N         20.0290   36.5210   20.8450 N.am  233  LEU233     -0.1964
     54  CA        19.1410   37.6540   21.0220 C.3   233  LEU233      0.1728
     55  C         17.7140   37.1380   21.1770 C.2   233  LEU233      0.2616
     56  O         17.2380   36.3320   20.3850 O.2   233  LEU233     -0.2715
     57  CB        19.2550   38.6420   19.8630 C.3   233  LEU233      0.0311
     58  CG        20.6790   39.0200   19.4500 C.3   233  LEU233      0.0022
     59  CD1       20.6500   39.8530   18.1900 C.3   233  LEU233      0.0001
     60  CD2       21.4010   39.7410   20.5830 C.3   233  LEU233      0.0001
     61  N         17.0590   37.5910   22.2400 N.am  234  PHE234     -0.1960
     62  CA        15.6610   37.2400   22.5280 C.3   234  PHE234      0.1771
     63  C         14.7690   38.4820   22.4880 C.2   234  PHE234      0.2619
     64  O         15.0350   39.4540   23.1840 O.2   234  PHE234     -0.2715
     65  CB        15.5370   36.5530   23.8880 C.3   234  PHE234      0.0574
     66  CG        16.3510   35.3050   24.0090 C.ar  234  PHE234     -0.0200
     67  CD1       17.5520   35.3130   24.7080 C.ar  234  PHE234     -0.0042
     68  CD2       15.9310   34.1300   23.4030 C.ar  234  PHE234     -0.0042
     69  CE1       18.3050   34.1930   24.8130 C.ar  234  PHE234     -0.0003
     70  CE2       16.6880   32.9840   23.4930 C.ar  234  PHE234     -0.0003
     71  CZ        17.8660   33.0030   24.1990 C.ar  234  PHE234     -0.0000
     72  N         13.7370   38.4350   21.6570 N.am  235  ALA235     -0.1963
     73  CA        12.7000   39.4630   21.6330 C.3   235  ALA235      0.1728
     74  C         11.9450   39.5870   23.0100 C.2   235  ALA235      0.2616
     75  O         11.6970   38.5890   23.7080 O.2   235  ALA235     -0.2715
     76  CB        11.7280   39.2010   20.4730 C.3   235  ALA235      0.0334
     77  N         11.6240   40.8350   23.3700 N.am  236  ARG236     -0.1977
     78  CA        11.0930   41.2190   24.6870 C.3   236  ARG236      0.1597
     79  C         10.5260   42.6380   24.5470 C.2   236  ARG236      0.2287
     80  O         11.2500   43.5680   24.1890 O.2   236  ARG236     -0.2864
     81  CB        12.2390   41.2000   25.7130 C.3   236  ARG236      0.0334
     82  CG        11.8970   40.8610   27.1600 C.3   236  ARG236      0.0492
     83  CD        13.1680   40.3920   27.8890 C.3   236  ARG236      0.2205
     84  NE        13.1040   40.4850   29.3480 N.pl3 236  ARG236     -0.0865
     85  CZ        13.0100   39.4760   30.2190 C.cat 236  ARG236      0.5346
     86  NH1       12.9360   38.2220   29.8250 N.pl3 236  ARG236      0.1354
     87  NH2       12.9750   39.7260   31.5250 N.pl3 236  ARG236      0.1354
     88  N          8.5500   45.2170   22.3520 N.3   238  ARG238     -0.1245
     89  CA         8.2440   45.3600   20.9380 C.3   238  ARG238      0.1563
     90  C          9.1010   44.4050   20.1180 C.2   238  ARG238      0.2260
     91  O         10.1370   43.9460   20.5770 O.2   238  ARG238     -0.2867
     92  CB         8.4390   46.8100   20.4820 C.3   238  ARG238      0.0307
     93  CG         7.4870   47.7430   21.2040 C.3   238  ARG238      0.0489
     94  CD         7.7850   49.1670   20.7870 C.3   238  ARG238      0.2205
     95  NE         7.9570   49.2220   19.3470 N.pl3 238  ARG238     -0.0865
     96  CZ         6.9980   49.6230   18.5140 C.cat 238  ARG238      0.5346
     97  NH1        5.7970   49.9760   18.9540 N.pl3 238  ARG238      0.1354
     98  NH2        7.2170   49.6210   17.2000 N.pl3 238  ARG238      0.1354
     99  N         11.3930   44.4870   17.8170 N.3   240  GLU240     -0.1231
    100  CA        12.3550   45.4320   17.2940 C.3   240  GLU240      0.1699
    101  C         13.7490   45.1960   17.8710 C.2   240  GLU240      0.2592
    102  O         13.9060   44.5790   18.9230 O.2   240  GLU240     -0.2718
    103  CB        11.9130   46.8590   17.5930 C.3   240  GLU240      0.0402
    104  CG        11.7850   47.2050   19.0590 C.3   240  GLU240      0.1161
    105  CD        11.3210   48.6570   19.2690 C.2   240  GLU240      0.3649
    106  OE1       10.4890   49.1590   18.4540 O.co2 240  GLU240     -0.2457
    107  OE2       11.7940   49.3000   20.2470 O.co2 240  GLU240     -0.2457
    108  N         14.7440   45.7220   17.1790 N.am  241  LEU241     -0.1966
    109  CA        16.1360   45.4740   17.5190 C.3   241  LEU241      0.1728
    110  C         16.9520   46.7220   17.2110 C.2   241  LEU241      0.2616
    111  O         16.8870   47.2300   16.1140 O.2   241  LEU241     -0.2715
    112  CB        16.6690   44.2540   16.7070 C.3   241  LEU241      0.0311
    113  CG        18.1400   43.8770   16.8370 C.3   241  LEU241      0.0022
    114  CD1       18.4880   43.3520   18.2340 C.3   241  LEU241      0.0001
    115  CD2       18.5420   42.8990   15.7250 C.3   241  LEU241      0.0001
    116  N         17.7130   47.1920   18.2010 N.am  242  ILE242     -0.1977
    117  CA        18.6770   48.2790   18.0120 C.3   242  ILE242      0.1596
    118  C         20.0030   47.7450   17.4820 C.2   242  ILE242      0.2287
    119  O         20.6930   46.9820   18.1270 O.2   242  ILE242     -0.2864
    120  CB        18.8840   49.1920   19.2670 C.3   242  ILE242      0.0276
    121  CG1       17.6050   49.9780   19.5840 C.3   242  ILE242      0.0022
    122  CG2       20.0280   50.2610   19.0170 C.3   242  ILE242      0.0022
    123  CD1       17.6810   50.7630   20.8790 C.3   242  ILE242      0.0001
@<TRIPOS>BOND
     1    21    20    2
     2   115   113    1
     3   111   110    2
     4    20    19    1
     5   112   113    1
     6   112   109    1
     7   113   114    1
     8    19    22    1
     9    19    18    1
    10    22    24    1
    11    22    23    1
    12   108   109    1
    13   108   101   am
    14    98    96    1
    15   110   109    1
    16   110   116   am
    17   100   103    1
    18   100    99    1
    19   100   101    1
    20   118   117    1
    21   118   119    2
    22    25    23    1
    23   103   104    1
    24    27    26    1
    25    27    28    1
    26    27    30    1
    27   101   102    2
    28   117   116    1
    29   117   120    1
    30    28    29    2
    31    59    58    1
    32   106   105   ar
    33    96    97    1
    34    96    95    2
    35    31    30    1
    36    31    32    1
    37   122   120    1
    38   104   105    1
    39   120   121    1
    40   105   107   ar
    41    95    94    1
    42    32    33    1
    43    58    57    1
    44    58    60    1
    45   121   123    1
    46    57    54    1
    47    90    91    2
    48    90    89    1
    49    56    55    2
    50    40    39    2
    51    76    73    1
    52    92    89    1
    53    92    93    1
    54    33    34    2
    55    94    93    1
    56    53    54    1
    57    53    48   am
    58    89    88    1
    59    54    55    1
    60    37    38    1
    61    55    61   am
    62    36    34    1
    63    39    46   am
    64    39    38    1
    65    34    35    1
    66    47    48    1
    67    47    46    1
    68    47    50    1
    69    73    72    1
    70    73    74    1
    71    72    63   am
    72    48    49    2
    73    46    52    1
    74    38    41    1
    75    61    62    1
    76    50    51    1
    77    41    42    1
    78    63    62    1
    79    63    64    2
    80    62    65    1
    81     1     2    1
    82    74    77   am
    83    74    75    2
    84    52    51    1
    85    42    43    1
    86    44    43   ar
    87    77    78    1
    88    68    70   ar
    89    68    66   ar
    90    70    71   ar
    91    12    13    2
    92    12    11    1
    93    43    45   ar
    94    65    66    1
    95    66    67   ar
    96     2     3    1
    97     2     5    1
    98    80    79    2
    99    71    69   ar
   100    10     3   am
   101    10    11    1
   102     3     4    2
   103    79    78    1
   104    11    14    1
   105    78    81    1
   106    14    15    1
   107    67    69   ar
   108     5     6    1
   109    81    82    1
   110    17    15   am
   111    15    16    2
   112     8     7   ar
   113     6     7    1
   114     7     9   ar
   115    82    83    1
   116    83    84    1
   117    84    85    2
   118    86    85    1
   119    85    87    1
