@<TRIPOS>MOLECULE
tmp/2r9qB01.pdb
 212 206 0 0 0
SMALL
GASTEIGER

@<TRIPOS>ATOM
      1  N         27.2090   53.8240   44.3200 N.3   107  SER107     -0.1217
      2  CA        26.2850   53.8500   43.1970 C.3   107  SER107      0.1889
      3  C         26.8730   54.5980   41.9970 C.2   107  SER107      0.2288
      4  O         26.5030   54.3280   40.8650 O.2   107  SER107     -0.2866
      5  CB        24.9620   54.4570   43.6130 C.3   107  SER107      0.2089
      6  OG        25.1100   55.8150   43.9530 O.3   107  SER107     -0.2183
      7  N         28.8710   51.9900   40.1790 N.3   110  ARG110     -0.1231
      8  CA        28.0410   51.0200   39.4730 C.3   110  ARG110      0.1694
      9  C         27.5780   51.5350   38.1100 C.2   110  ARG110      0.2591
     10  O         27.1440   50.7410   37.2720 O.2   110  ARG110     -0.2718
     11  CB        26.7970   50.6290   40.2600 C.3   110  ARG110      0.0321
     12  CG        26.9530   50.2450   41.6970 C.3   110  ARG110      0.0489
     13  CD        27.6740   48.9510   41.9680 C.3   110  ARG110      0.2205
     14  NE        28.0530   48.9300   43.3890 N.pl3 110  ARG110     -0.0865
     15  CZ        27.3430   48.4050   44.3760 C.cat 110  ARG110      0.5346
     16  NH1       26.2200   47.7490   44.1470 N.pl3 110  ARG110      0.1354
     17  NH2       27.7880   48.5160   45.6110 N.pl3 110  ARG110      0.1354
     18  N         27.6500   52.8500   37.8960 N.am  111  LEU111     -0.1980
     19  CA        27.2810   53.4440   36.6460 C.3   111  LEU111      0.1596
     20  C         28.5040   53.8440   35.8560 C.2   111  LEU111      0.2287
     21  O         28.3700   54.5410   34.8550 O.2   111  LEU111     -0.2864
     22  CB        26.4190   54.6710   36.8640 C.3   111  LEU111      0.0297
     23  CG        24.9020   54.5810   37.0140 C.3   111  LEU111      0.0022
     24  CD1       24.4510   53.3120   37.6690 C.3   111  LEU111      0.0001
     25  CD2       24.4050   55.8080   37.7850 C.3   111  LEU111      0.0001
     26  N         26.4410   32.5470   42.0750 N.3   201  PHE201     -0.1227
     27  CA        25.4340   32.6710   43.1280 C.3   201  PHE201      0.1736
     28  C         24.0770   32.2070   42.6560 C.2   201  PHE201      0.2596
     29  O         23.6430   32.5510   41.5650 O.2   201  PHE201     -0.2718
     30  CB        25.3710   34.1120   43.6290 C.3   201  PHE201      0.0547
     31  CG        26.6530   34.5630   44.2660 C.ar  201  PHE201     -0.0202
     32  CD1       27.5000   35.4560   43.6150 C.ar  201  PHE201     -0.0042
     33  CD2       27.0360   34.0560   45.5020 C.ar  201  PHE201     -0.0042
     34  CE1       28.6890   35.8380   44.1980 C.ar  201  PHE201     -0.0003
     35  CE2       28.2090   34.4360   46.0820 C.ar  201  PHE201     -0.0003
     36  CZ        29.0430   35.3270   45.4350 C.ar  201  PHE201     -0.0000
     37  N         23.4290   31.4100   43.5010 N.am  202  GLY202     -0.1957
     38  CA        22.0680   30.9360   43.2770 C.3   202  GLY202      0.1869
     39  C         22.0450   29.7300   42.3660 C.2   202  GLY202      0.2309
     40  O         23.0740   29.0900   42.1710 O.2   202  GLY202     -0.2863
     41  N         21.1700   29.5220   39.0520 N.3   204  ASN204     -0.1240
     42  CA        21.6790   29.8590   37.7130 C.3   204  ASN204      0.1653
     43  C         23.1940   30.1780   37.7030 C.2   204  ASN204      0.2266
     44  O         23.8090   30.2830   36.6330 O.2   204  ASN204     -0.2867
     45  CB        20.9400   31.1310   37.1860 C.3   204  ASN204      0.1155
     46  CG        19.7430   30.8400   36.2310 C.2   204  ASN204      0.2627
     47  OD1       19.0070   31.7930   35.8120 O.2   204  ASN204     -0.2716
     48  ND2       19.5580   29.5590   35.8530 N.am  204  ASN204     -0.0877
     49  N         24.8900   33.0990   38.8090 N.3   206  LEU206     -0.1231
     50  CA        25.2030   34.5220   38.5820 C.3   206  LEU206      0.1693
     51  C         26.5070   34.9810   39.2520 C.2   206  LEU206      0.2592
     52  O         26.6700   34.8130   40.4680 O.2   206  LEU206     -0.2718
     53  CB        24.0270   35.4130   39.0810 C.3   206  LEU206      0.0284
     54  CG        24.1520   36.9470   38.9600 C.3   206  LEU206      0.0019
     55  CD1       23.9990   37.4080   37.5170 C.3   206  LEU206      0.0001
     56  CD2       23.1720   37.6940   39.8870 C.3   206  LEU206      0.0001
     57  N         27.4140   35.5650   38.4570 N.am  207  ILE207     -0.1966
     58  CA        28.6990   36.0760   38.9780 C.3   207  ILE207      0.1727
     59  C         28.7220   37.6170   39.0940 C.2   207  ILE207      0.2617
     60  O         29.4510   38.1770   39.8810 O.2   207  ILE207     -0.2715
     61  CB        30.0150   35.5700   38.1860 C.3   207  ILE207      0.0290
     62  CG1       30.0900   36.1580   36.7980 C.3   207  ILE207      0.0022
     63  CG2       30.2320   34.0370   38.1590 C.3   207  ILE207      0.0023
     64  CD1       31.2560   35.4980   35.9790 C.3   207  ILE207      0.0001
     65  N         27.9100   38.2870   38.3010 N.am  208  GLY208     -0.1940
     66  CA        27.9360   39.7180   38.2180 C.3   208  GLY208      0.2014
     67  C         27.3960   40.2660   36.9160 C.2   208  GLY208      0.2638
     68  O         26.6310   39.6320   36.2090 O.2   208  GLY208     -0.2714
     69  N         27.7730   41.4880   36.6200 N.am  209  TYR209     -0.1973
     70  CA        27.1810   42.2240   35.5190 C.3   209  TYR209      0.1639
     71  C         28.2770   42.8720   34.6740 C.2   209  TYR209      0.2290
     72  O         29.3080   43.2380   35.1830 O.2   209  TYR209     -0.2864
     73  CB        26.1850   43.2680   36.0450 C.3   209  TYR209      0.0560
     74  CG        24.9800   42.6480   36.7430 C.ar  209  TYR209     -0.0198
     75  CD1       23.8670   42.2440   36.0220 C.ar  209  TYR209     -0.0009
     76  CD2       24.9870   42.4370   38.1110 C.ar  209  TYR209     -0.0009
     77  CE1       22.7840   41.6760   36.6480 C.ar  209  TYR209      0.0417
     78  CE2       23.9060   41.8560   38.7700 C.ar  209  TYR209      0.0417
     79  CZ        22.8090   41.4810   38.0330 C.ar  209  TYR209      0.1957
     80  OH        21.7490   40.9140   38.6600 O.3   209  TYR209     -0.2866
     81  N         17.8690   56.1760   40.3780 N.3   223  LYS223     -0.1231
     82  CA        18.5620   55.0020   39.8150 C.3   223  LYS223      0.1693
     83  C         17.7220   53.7020   39.8960 C.2   223  LYS223      0.2591
     84  O         17.7560   52.8990   38.9760 O.2   223  LYS223     -0.2718
     85  CB        19.9530   54.8070   40.4340 C.3   223  LYS223      0.0285
     86  CG        20.9050   55.9630   40.2810 C.3   223  LYS223      0.0035
     87  CD        22.2650   55.6160   40.8810 C.3   223  LYS223      0.0206
     88  CE        23.1170   56.8350   41.0860 C.3   223  LYS223      0.1093
     89  NZ        22.7240   57.6550   42.2650 N.3   223  LYS223     -0.1314
     90  N         16.9480   53.5320   40.9650 N.am  224  ALA224     -0.1980
     91  CA        16.0010   52.3920   41.0950 C.3   224  ALA224      0.1597
     92  C         14.8060   52.3780   40.1230 C.2   224  ALA224      0.2287
     93  O         14.0290   51.4250   40.1560 O.2   224  ALA224     -0.2864
     94  CB        15.4780   52.2640   42.5490 C.3   224  ALA224      0.0319
     95  N         15.1640   52.4000   36.8540 N.3   226  HIS226     -0.1241
     96  CA        15.6900   51.8390   35.6270 C.3   226  HIS226      0.1621
     97  C         15.7130   50.3000   35.7110 C.2   226  HIS226      0.2264
     98  O         16.2640   49.7390   36.6620 O.2   226  HIS226     -0.2867
     99  CB        17.1130   52.3840   35.4010 C.3   226  HIS226      0.0745
    100  CG        17.1730   53.8750   35.2300 C.ar  226  HIS226      0.0817
    101  ND1       17.4800   54.7340   36.2650 N.ar  226  HIS226     -0.2268
    102  CD2       16.9660   54.6580   34.1420 C.ar  226  HIS226      0.1154
    103  CE1       17.4440   55.9790   35.8230 C.ar  226  HIS226      0.1986
    104  NE2       17.1400   55.9610   34.5390 N.ar  226  HIS226     -0.2212
    105  N         16.9610   46.6620   35.3250 N.3   228  VAL228     -0.1245
    106  CA        18.3020   46.0850   35.2880 C.3   228  VAL228      0.1561
    107  C         18.7290   45.5870   33.8870 C.2   228  VAL228      0.2260
    108  O         19.8110   45.9380   33.4210 O.2   228  VAL228     -0.2867
    109  CB        18.5190   45.0200   36.4020 C.3   228  VAL228      0.0252
    110  CG1       18.4290   45.6970   37.7620 C.3   228  VAL228      0.0019
    111  CG2       17.5120   43.8630   36.3010 C.3   228  VAL228      0.0019
    112  N         22.4970   46.4870   32.1750 N.3   232  TRP232     -0.1241
    113  CA        23.4930   45.5220   32.6090 C.3   232  TRP232      0.1605
    114  C         23.1690   44.1800   31.9750 C.2   232  TRP232      0.2264
    115  O         22.0060   43.8890   31.7460 O.2   232  TRP232     -0.2867
    116  CB        23.4990   45.4510   34.1270 C.3   232  TRP232      0.0550
    117  CG        23.9230   46.7310   34.8380 C.ar  232  TRP232      0.0003
    118  CD1       25.2030   47.1520   35.0720 C.ar  232  TRP232      0.0946
    119  CD2       23.0660   47.7330   35.4030 C.ar  232  TRP232      0.0152
    120  NE1       25.2030   48.3460   35.7380 N.ar  232  TRP232     -0.2442
    121  CE2       23.9040   48.7280   35.9660 C.ar  232  TRP232      0.0810
    122  CE3       21.6660   47.8800   35.5120 C.ar  232  TRP232      0.0012
    123  CZ2       23.3840   49.8690   36.6360 C.ar  232  TRP232      0.0191
    124  CZ3       21.1360   49.0140   36.1550 C.ar  232  TRP232      0.0001
    125  CH2       22.0030   50.0030   36.7110 C.ar  232  TRP232      0.0015
    126  N         27.1330   34.5510   33.9860 N.3   236  PHE236     -0.1241
    127  CA        26.8600   33.3000   34.6680 C.3   236  PHE236      0.1605
    128  C         28.0880   32.4280   34.5360 C.2   236  PHE236      0.2264
    129  O         28.6110   32.3270   33.4490 O.2   236  PHE236     -0.2867
    130  CB        25.6240   32.5920   34.0780 C.3   236  PHE236      0.0534
    131  CG        24.3830   33.4150   34.0880 C.ar  236  PHE236     -0.0203
    132  CD1       23.9540   34.0670   32.9420 C.ar  236  PHE236     -0.0042
    133  CD2       23.6250   33.5220   35.2370 C.ar  236  PHE236     -0.0042
    134  CE1       22.7960   34.8270   32.9400 C.ar  236  PHE236     -0.0003
    135  CE2       22.4550   34.2780   35.2500 C.ar  236  PHE236     -0.0003
    136  CZ        22.0380   34.9340   34.0940 C.ar  236  PHE236     -0.0000
    137  N         30.6770   44.4260   37.1710 N.3   252  ILE252     -0.1231
    138  CA        30.3040   44.5190   38.5840 C.3   252  ILE252      0.1692
    139  C         30.3740   43.1060   39.1320 C.2   252  ILE252      0.2592
    140  O         29.6320   42.2200   38.7190 O.2   252  ILE252     -0.2718
    141  CB        28.8800   45.1230   38.8270 C.3   252  ILE252      0.0266
    142  CG1       28.8020   46.5570   38.3150 C.3   252  ILE252      0.0019
    143  CG2       28.5240   45.0870   40.2950 C.3   252  ILE252      0.0020
    144  CD1       27.3700   47.0540   38.1500 C.3   252  ILE252      0.0001
    145  N         31.2870   42.9300   40.0770 N.am  253  LEU253     -0.1966
    146  CA        31.6250   41.6410   40.6140 C.3   253  LEU253      0.1728
    147  C         31.6290   41.6700   42.1360 C.2   253  LEU253      0.2616
    148  O         31.5120   42.7320   42.7620 O.2   253  LEU253     -0.2715
    149  CB        32.9830   41.1860   40.0550 C.3   253  LEU253      0.0311
    150  CG        33.0970   40.9820   38.5410 C.3   253  LEU253      0.0022
    151  CD1       34.5520   40.7890   38.1810 C.3   253  LEU253      0.0001
    152  CD2       32.2250   39.8110   38.0700 C.3   253  LEU253      0.0001
    153  N         31.7490   40.4820   42.7290 N.am  254  VAL254     -0.1977
    154  CA        31.6480   40.3240   44.1790 C.3   254  VAL254      0.1596
    155  C         32.8610   39.6070   44.8310 C.2   254  VAL254      0.2287
    156  O         33.4220   38.6610   44.2960 O.2   254  VAL254     -0.2864
    157  CB        30.2130   39.7460   44.6180 C.3   254  VAL254      0.0276
    158  CG1       29.5960   38.9090   43.5440 C.3   254  VAL254      0.0022
    159  CG2       30.2780   39.0030   45.9300 C.3   254  VAL254      0.0022
    160  N         29.1420   48.7630   58.5290 N.3   291  PHE291     -0.1227
    161  CA        29.0100   47.9640   57.3060 C.3   291  PHE291      0.1736
    162  C         29.1190   46.4880   57.6870 C.2   291  PHE291      0.2596
    163  O         29.9800   46.1060   58.4980 O.2   291  PHE291     -0.2718
    164  CB        30.0720   48.3170   56.2330 C.3   291  PHE291      0.0547
    165  CG        30.0100   47.4380   54.9970 C.ar  291  PHE291     -0.0202
    166  CD1       29.2320   47.7950   53.9100 C.ar  291  PHE291     -0.0042
    167  CD2       30.7040   46.2390   54.9390 C.ar  291  PHE291     -0.0042
    168  CE1       29.1700   46.9800   52.7730 C.ar  291  PHE291     -0.0003
    169  CE2       30.6430   45.4330   53.8170 C.ar  291  PHE291     -0.0003
    170  CZ        29.8850   45.8030   52.7320 C.ar  291  PHE291     -0.0000
    171  N         28.2470   45.6780   57.0880 N.am  292  GLY292     -0.1942
    172  CA        28.1730   44.2530   57.3650 C.3   292  GLY292      0.2014
    173  C         27.9510   43.9160   58.8290 C.2   292  GLY292      0.2638
    174  O         28.4350   42.9030   59.3020 O.2   292  GLY292     -0.2714
    175  N         27.2430   44.7860   59.5460 N.am  293  HIS293     -0.1973
    176  CA        26.9130   44.6030   60.9760 C.3   293  HIS293      0.1656
    177  C         26.3650   43.1880   61.2210 C.2   293  HIS293      0.2291
    178  O         25.5970   42.6620   60.4060 O.2   293  HIS293     -0.2864
    179  CB        25.8720   45.6510   61.4270 C.3   293  HIS293      0.0771
    180  CG        24.7380   45.8340   60.4420 C.ar  293  HIS293      0.0820
    181  ND1       23.5510   45.1300   60.5240 N.ar  293  HIS293     -0.2267
    182  CD2       24.6410   46.5980   59.3200 C.ar  293  HIS293      0.1154
    183  CE1       22.7670   45.4690   59.5100 C.ar  293  HIS293      0.1986
    184  NE2       23.4070   46.3550   58.7630 N.ar  293  HIS293     -0.2212
    185  N         28.9100   40.0810   58.6010 N.3   299  GLY299     -0.1210
    186  CA        29.6810   40.5410   57.4530 C.3   299  GLY299      0.1956
    187  C         28.9280   40.5460   56.1450 C.2   299  GLY299      0.2613
    188  O         28.0810   39.6940   55.8950 O.2   299  GLY299     -0.2717
    189  N         29.2360   41.5270   55.3110 N.am  300  SER300     -0.1938
    190  CA        28.6620   41.6040   53.9610 C.3   300  SER300      0.2055
    191  C         29.7640   41.4660   52.9240 C.2   300  SER300      0.2642
    192  O         30.8980   41.8420   53.1440 O.2   300  SER300     -0.2714
    193  CB        27.9020   42.9260   53.7840 C.3   300  SER300      0.2130
    194  OG        27.4590   43.1060   52.4510 O.3   300  SER300     -0.2179
    195  N         29.4240   40.9120   51.7820 N.am  301  ARG301     -0.1977
    196  CA        30.3560   40.9230   50.6720 C.3   301  ARG301      0.1597
    197  C         30.5150   42.3370   50.1220 C.2   301  ARG301      0.2287
    198  O         29.5980   43.1510   50.2000 O.2   301  ARG301     -0.2864
    199  CB        29.9290   39.9550   49.5740 C.3   301  ARG301      0.0334
    200  CG        30.1660   38.5150   49.9440 C.3   301  ARG301      0.0492
    201  CD        29.0780   37.6450   49.4150 C.3   301  ARG301      0.2205
    202  NE        29.2860   36.2570   49.8260 N.pl3 301  ARG301     -0.0865
    203  CZ        30.1160   35.4060   49.2460 C.cat 301  ARG301      0.5346
    204  NH1       30.8650   35.7590   48.2110 N.pl3 301  ARG301      0.1354
    205  NH2       30.1890   34.1880   49.7060 N.pl3 301  ARG301      0.1354
    206  N         30.9370   44.5300   46.8120 N.3   303  VAL303     -0.1245
    207  CA        30.6750   44.5660   45.3810 C.3   303  VAL303      0.1561
    208  C         31.7710   45.4140   44.7680 C.2   303  VAL303      0.2260
    209  O         32.0280   46.4820   45.2470 O.2   303  VAL303     -0.2867
    210  CB        29.3300   45.1860   45.0720 C.3   303  VAL303      0.0252
    211  CG1       29.0680   45.1760   43.5750 C.3   303  VAL303      0.0019
    212  CG2       28.2520   44.4930   45.8600 C.3   303  VAL303      0.0019
@<TRIPOS>BOND
     1   115   114    2
     2   114   113    1
     3   112   113    1
     4   113   116    1
     5   134   132   ar
     6   134   136   ar
     7   132   131   ar
     8   108   107    2
     9   129   128    2
    10   107   106    1
    11   126   127    1
    12   130   131    1
    13   130   127    1
    14   131   133   ar
    15   136   135   ar
    16   116   117    1
    17   102   104   ar
    18   102   100   ar
    19   128   127    1
    20   104   103   ar
    21    71    72    2
    22    71    70    1
    23   117   118   ar
    24   117   119   ar
    25    21    20    2
    26   118   120   ar
    27   100    99    1
    28   100   101   ar
    29   133   135   ar
    30   106   105    1
    31   106   109    1
    32    99    96    1
    33   119   122   ar
    34   119   121   ar
    35   122   124   ar
    36    70    73    1
    37    70    69    1
    38    96    97    1
    39    96    95    1
    40    97    98    2
    41   120   121   ar
    42    47    46    2
    43   103   101   ar
    44    48    46   am
    45    20    19    1
    46   121   123   ar
    47    64    62    1
    48    75    77   ar
    49    75    74   ar
    50    73    74    1
    51   124   125   ar
    52    68    67    2
    53    46    45    1
    54   111   109    1
    55   109   110    1
    56    69    67   am
    57    44    43    2
    58   123   125   ar
    59    19    22    1
    60    19    18    1
    61    77    79   ar
    62    74    76   ar
    63    62    61    1
    64    22    23    1
    65    67    66    1
    66    23    24    1
    67    23    25    1
    68   137   138    1
    69    45    42    1
    70    10     9    2
    71    55    54    1
    72    43    42    1
    73    42    41    1
    74    18     9   am
    75    79    80    1
    76    79    78   ar
    77   152   150    1
    78     9     8    1
    79    76    78   ar
    80   144   142    1
    81    63    61    1
    82   151   150    1
    83    61    58    1
    84    66    65    1
    85    65    59   am
    86   142   141    1
    87    57    58    1
    88    57    51   am
    89   150   149    1
    90    50    49    1
    91    50    53    1
    92    50    51    1
    93   138   141    1
    94   138   139    1
    95   140   139    2
    96   141   143    1
    97    54    53    1
    98    54    56    1
    99    84    83    2
   100    58    59    1
   101    59    60    2
   102   139   145   am
   103    51    52    2
   104     8     7    1
   105     8    11    1
   106    82    83    1
   107    82    81    1
   108    82    85    1
   109    83    90   am
   110   149   146    1
   111   145   146    1
   112    92    93    2
   113    92    91    1
   114    11    12    1
   115    86    85    1
   116    86    87    1
   117   146   147    1
   118     4     3    2
   119    87    88    1
   120    90    91    1
   121    88    89    1
   122    91    94    1
   123    29    28    2
   124    12    13    1
   125    13    14    1
   126     3     2    1
   127    26    27    1
   128   147   153   am
   129   147   148    2
   130    40    39    2
   131    39    38    1
   132    28    27    1
   133    28    37   am
   134   153   154    1
   135    27    30    1
   136     2     5    1
   137     2     1    1
   138    38    37    1
   139    14    15    2
   140   158   157    1
   141   211   210    1
   142     5     6    1
   143    32    34   ar
   144    32    31   ar
   145    30    31    1
   146    16    15    1
   147   154   157    1
   148   154   155    1
   149    34    36   ar
   150    31    33   ar
   151   156   155    2
   152    15    17    1
   153   157   159    1
   154   208   209    2
   155   208   207    1
   156   210   207    1
   157   210   212    1
   158   207   206    1
   159    36    35   ar
   160    33    35   ar
   161   204   203    1
   162   203   205    1
   163   203   202    2
   164   201   202    1
   165   201   200    1
   166   199   200    1
   167   199   196    1
   168   197   198    2
   169   197   196    1
   170   196   195    1
   171   195   191   am
   172   194   193    1
   173   170   168   ar
   174   170   169   ar
   175   168   166   ar
   176   191   192    2
   177   191   190    1
   178   193   190    1
   179   169   167   ar
   180   166   165   ar
   181   190   189    1
   182   167   165   ar
   183   165   164    1
   184   189   187   am
   185   188   187    2
   186   187   186    1
   187   164   161    1
   188   171   172    1
   189   171   162   am
   190   161   162    1
   191   161   160    1
   192   172   173    1
   193   186   185    1
   194   162   163    2
   195   184   182   ar
   196   184   183   ar
   197   173   174    2
   198   173   175   am
   199   182   180   ar
   200   183   181   ar
   201   175   176    1
   202   178   177    2
   203   180   181   ar
   204   180   179    1
   205   176   177    1
   206   176   179    1
