@<TRIPOS>MOLECULE
tmp/2r9rB08.pdb
 141 132 0 0 0
SMALL
GASTEIGER

@<TRIPOS>ATOM
      1  N        -23.8950   46.5540  154.1110 N.3   222  ASN222     -0.1225
      2  CA       -23.9870   48.0050  154.1460 C.3   222  ASN222      0.1785
      3  C        -23.6060   48.4710  155.5640 C.2   222  ASN222      0.2597
      4  O        -24.2290   48.0790  156.5540 O.2   222  ASN222     -0.2718
      5  CB       -25.4160   48.4340  153.8220 C.3   222  ASN222      0.1169
      6  CG       -25.5330   49.9120  153.5650 C.2   222  ASN222      0.2627
      7  OD1      -24.8320   50.7160  154.1710 O.2   222  ASN222     -0.2716
      8  ND2      -26.4320   50.2830  152.6700 N.am  222  ASN222     -0.0877
      9  N        -22.5760   49.3000  155.6570 N.am  223  ILE223     -0.1966
     10  CA       -22.1220   49.7960  156.9460 C.3   223  ILE223      0.1727
     11  C        -23.2440   50.5450  157.6860 C.2   223  ILE223      0.2616
     12  O        -23.3030   50.5240  158.9130 O.2   223  ILE223     -0.2715
     13  CB       -20.8850   50.7010  156.7630 C.3   223  ILE223      0.0290
     14  CG1      -20.3280   51.1020  158.1270 C.3   223  ILE223      0.0022
     15  CG2      -21.2530   51.9250  155.9470 C.3   223  ILE223      0.0023
     16  CD1      -19.0480   51.8760  158.0410 C.3   223  ILE223      0.0001
     17  N        -24.1370   51.1860  156.9350 N.am  224  MET224     -0.1977
     18  CA       -25.2710   51.9070  157.5210 C.3   224  MET224      0.1605
     19  C        -26.2040   50.9730  158.2970 C.2   224  MET224      0.2287
     20  O        -26.7270   51.3450  159.3450 O.2   224  MET224     -0.2864
     21  CB       -26.0930   52.5950  156.4340 C.3   224  MET224      0.0413
     22  CG       -25.2890   53.5190  155.5640 C.3   224  MET224      0.0598
     23  SD       -24.7340   54.9600  156.4650 S.3   224  MET224     -0.1393
     24  CE       -25.2380   56.2820  155.3450 C.3   224  MET224      0.0692
     25  N        -24.5500   49.8860  161.5360 N.3   227  ILE227     -0.1245
     26  CA       -24.7020   50.9490  162.5010 C.3   227  ILE227      0.1561
     27  C        -26.0870   50.8860  163.1390 C.2   227  ILE227      0.2260
     28  O        -26.2150   50.9990  164.3560 O.2   227  ILE227     -0.2867
     29  CB       -24.4990   52.3380  161.8250 C.3   227  ILE227      0.0252
     30  CG1      -23.0380   52.4990  161.4010 C.3   227  ILE227      0.0019
     31  CG2      -24.9300   53.4590  162.7670 C.3   227  ILE227      0.0019
     32  CD1      -22.7960   53.7270  160.5060 C.3   227  ILE227      0.0001
     33  N        -23.0720   57.5710  165.4440 N.3   270  PHE270     -0.1241
     34  CA       -22.8590   57.2760  164.0510 C.3   270  PHE270      0.1605
     35  C        -24.1110   57.0370  163.2270 C.2   270  PHE270      0.2264
     36  O        -24.0260   56.7860  162.0370 O.2   270  PHE270     -0.2867
     37  CB       -21.8930   56.1050  163.9330 C.3   270  PHE270      0.0534
     38  CG       -20.5290   56.4340  164.4520 C.ar  270  PHE270     -0.0203
     39  CD1      -19.7730   57.4500  163.8620 C.ar  270  PHE270     -0.0042
     40  CD2      -20.0250   55.7950  165.5740 C.ar  270  PHE270     -0.0042
     41  CE1      -18.5310   57.8260  164.3930 C.ar  270  PHE270     -0.0003
     42  CE2      -18.7960   56.1590  166.1070 C.ar  270  PHE270     -0.0003
     43  CZ       -18.0430   57.1800  165.5170 C.ar  270  PHE270     -0.0000
     44  N        -24.7020   59.4930  160.4730 N.3   273  SER273     -0.1217
     45  CA       -24.0010   59.3980  159.2040 C.3   273  SER273      0.1889
     46  C        -24.9070   59.0950  158.0090 C.2   273  SER273      0.2288
     47  O        -24.5020   59.2410  156.8530 O.2   273  SER273     -0.2866
     48  CB       -22.8900   58.3620  159.3000 C.3   273  SER273      0.2089
     49  OG       -23.4410   57.0840  159.3950 O.3   273  SER273     -0.2183
     50  N        -23.7460   64.1000  154.7300 N.3   277  LYS277     -0.1245
     51  CA       -22.9100   63.9040  153.5660 C.3   277  LYS277      0.1561
     52  C        -21.4510   63.9170  154.0020 C.2   277  LYS277      0.2260
     53  O        -20.6520   63.0850  153.5600 O.2   277  LYS277     -0.2867
     54  CB       -23.1650   65.0250  152.5420 C.3   277  LYS277      0.0271
     55  CG       -22.6780   64.7090  151.1280 C.3   277  LYS277      0.0035
     56  CD       -23.3520   63.4390  150.6320 C.3   277  LYS277      0.0206
     57  CE       -22.8010   62.9870  149.3020 C.3   277  LYS277      0.1093
     58  NZ       -23.4590   61.6870  148.9120 N.3   277  LYS277     -0.1314
     59  N        -20.1360   63.1900  156.9180 N.3   279  LEU279     -0.1231
     60  CA       -19.7740   61.9990  157.6540 C.3   279  LEU279      0.1693
     61  C        -19.5920   60.8210  156.6830 C.2   279  LEU279      0.2591
     62  O        -18.7980   59.8980  156.9130 O.2   279  LEU279     -0.2718
     63  CB       -20.8640   61.7290  158.6760 C.3   279  LEU279      0.0284
     64  CG       -20.4890   61.1600  160.0330 C.3   279  LEU279      0.0019
     65  CD1      -19.2190   61.7860  160.5470 C.3   279  LEU279      0.0001
     66  CD2      -21.6530   61.4400  160.9910 C.3   279  LEU279      0.0001
     67  N        -20.3330   60.8530  155.5800 N.am  280  GLN280     -0.1979
     68  CA       -20.2000   59.8040  154.5810 C.3   280  GLN280      0.1601
     69  C        -18.8440   59.9930  153.8820 C.2   280  GLN280      0.2287
     70  O        -18.1180   59.0260  153.6410 O.2   280  GLN280     -0.2864
     71  CB       -21.3510   59.8970  153.5820 C.3   280  GLN280      0.0394
     72  CG       -22.6670   59.3150  154.0610 C.3   280  GLN280      0.0908
     73  CD       -23.8570   59.8700  153.2930 C.2   280  GLN280      0.2608
     74  OE1      -23.7910   60.0380  152.0740 O.2   280  GLN280     -0.2717
     75  NE2      -24.9520   60.1630  154.0050 N.am  280  GLN280     -0.0878
     76  N        -16.2010   61.4770  155.1130 N.3   282  LEU282     -0.1231
     77  CA       -15.1680   61.1300  156.0660 C.3   282  LEU282      0.1693
     78  C        -14.9760   59.6330  156.0260 C.2   282  LEU282      0.2593
     79  O        -13.8450   59.1520  156.0320 O.2   282  LEU282     -0.2718
     80  CB       -15.5700   61.5610  157.4750 C.3   282  LEU282      0.0284
     81  CG       -14.6390   61.1770  158.6400 C.3   282  LEU282      0.0019
     82  CD1      -13.1850   61.4860  158.3030 C.3   282  LEU282      0.0001
     83  CD2      -15.0720   61.9340  159.8860 C.3   282  LEU282      0.0001
     84  N        -16.0960   58.9050  155.9870 N.am  283  GLY283     -0.1942
     85  CA       -16.0660   57.4480  155.9400 C.3   283  GLY283      0.2014
     86  C        -15.3340   56.9450  154.7140 C.2   283  GLY283      0.2638
     87  O        -14.4360   56.1170  154.8180 O.2   283  GLY283     -0.2714
     88  N        -15.7140   57.4440  153.5420 N.am  284  GLN284     -0.1977
     89  CA       -15.0500   57.0450  152.3050 C.3   284  GLN284      0.1601
     90  C        -13.5510   57.3470  152.4160 C.2   284  GLN284      0.2287
     91  O        -12.7080   56.5530  151.9760 O.2   284  GLN284     -0.2864
     92  CB       -15.6230   57.8140  151.1010 C.3   284  GLN284      0.0394
     93  CG       -17.1270   57.6840  150.8940 C.3   284  GLN284      0.0908
     94  CD       -17.6350   58.5100  149.7080 C.2   284  GLN284      0.2608
     95  OE1      -17.3390   59.7030  149.5880 O.2   284  GLN284     -0.2717
     96  NE2      -18.4140   57.8780  148.8340 N.am  284  GLN284     -0.0878
     97  N        -11.5510   57.5720  155.1650 N.3   286  LEU286     -0.1231
     98  CA       -10.8450   56.6810  156.0600 C.3   286  LEU286      0.1693
     99  C        -10.6630   55.3240  155.4160 C.2   286  LEU286      0.2591
    100  O         -9.6000   54.7230  155.5200 O.2   286  LEU286     -0.2718
    101  CB       -11.5980   56.5560  157.3830 C.3   286  LEU286      0.0284
    102  CG       -11.7640   57.8620  158.1760 C.3   286  LEU286      0.0019
    103  CD1      -12.5280   57.5570  159.4540 C.3   286  LEU286      0.0001
    104  CD2      -10.4110   58.4950  158.5120 C.3   286  LEU286      0.0001
    105  N        -11.6910   54.8400  154.7350 N.am  287  LYS287     -0.1980
    106  CA       -11.6080   53.5420  154.0760 C.3   287  LYS287      0.1596
    107  C        -10.4750   53.5270  153.0490 C.2   287  LYS287      0.2287
    108  O         -9.7730   52.5300  152.8910 O.2   287  LYS287     -0.2864
    109  CB       -12.9300   53.2260  153.3830 C.3   287  LYS287      0.0298
    110  CG       -12.9690   51.8600  152.7290 C.3   287  LYS287      0.0038
    111  CD       -14.1830   51.7260  151.8030 C.3   287  LYS287      0.0206
    112  CE       -14.2400   50.3470  151.1210 C.3   287  LYS287      0.1093
    113  NZ       -12.9680   50.0240  150.4000 N.3   287  LYS287     -0.1314
    114  N         -6.5670   53.6030  154.8430 N.3   290  MET290     -0.1245
    115  CA        -6.1300   52.5920  155.8110 C.3   290  MET290      0.1570
    116  C         -4.6220   52.4200  155.8690 C.2   290  MET290      0.2261
    117  O         -4.0320   52.3310  156.9410 O.2   290  MET290     -0.2867
    118  CB        -6.7490   51.2320  155.4970 C.3   290  MET290      0.0387
    119  CG        -8.2380   51.1880  155.6810 C.3   290  MET290      0.0595
    120  SD        -8.6600   51.3820  157.4010 S.3   290  MET290     -0.1393
    121  CE        -9.1370   49.6420  157.8000 C.3   290  MET290      0.0692
    122  N        -15.4790   65.7800  144.8440 N.3   384  ARG384     -0.1231
    123  CA       -16.1520   64.9070  143.8930 C.3   384  ARG384      0.1694
    124  C        -17.6540   64.9200  144.1510 C.2   384  ARG384      0.2591
    125  O        -18.4560   64.6850  143.2470 O.2   384  ARG384     -0.2718
    126  CB       -15.6110   63.4780  143.9850 C.3   384  ARG384      0.0321
    127  CG       -16.0950   62.5910  142.8460 C.3   384  ARG384      0.0489
    128  CD       -15.3870   61.2420  142.8080 C.3   384  ARG384      0.2205
    129  NE       -15.6350   60.4480  144.0120 N.pl3 384  ARG384     -0.0865
    130  CZ       -16.8340   60.0200  144.4010 C.cat 384  ARG384      0.5346
    131  NH1      -17.9150   60.3030  143.6820 N.pl3 384  ARG384      0.1354
    132  NH2      -16.9540   59.3100  145.5170 N.pl3 384  ARG384      0.1354
    133  N        -18.0330   65.1980  145.3900 N.am  385  GLU385     -0.1979
    134  CA       -19.4450   65.2730  145.7520 C.3   385  GLU385      0.1602
    135  C        -19.9310   66.7220  145.5390 C.2   385  GLU385      0.2287
    136  O        -20.9960   66.9550  144.9530 O.2   385  GLU385     -0.2864
    137  CB       -19.6460   64.8520  147.2160 C.3   385  GLU385      0.0415
    138  CG       -19.0010   63.5130  147.5880 C.3   385  GLU385      0.1163
    139  CD       -19.6390   62.3070  146.9010 C.2   385  GLU385      0.3649
    140  OE1      -20.7000   62.4570  146.2490 O.co2 385  GLU385     -0.2457
    141  OE2      -19.0700   61.1940  147.0360 O.co2 385  GLU385     -0.2457
@<TRIPOS>BOND
     1   128   127    1
     2   128   129    1
     3   127   126    1
     4   125   124    2
     5   131   130    1
     6   123   126    1
     7   123   124    1
     8   123   122    1
     9   129   130    2
    10   124   133   am
    11   130   132    1
    12   136   135    2
    13   133   134    1
    14   135   134    1
    15   134   137    1
    16   140   139   ar
    17   139   141   ar
    18   139   138    1
    19   137   138    1
    20    96    94   am
    21    58    57    1
    22    57    56    1
    23    95    94    2
    24    94    93    1
    25   113   112    1
    26    56    55    1
    27    93    92    1
    28    92    89    1
    29   112   111    1
    30    55    54    1
    31   111   110    1
    32    91    90    2
    33    74    73    2
    34    89    90    1
    35    89    88    1
    36    54    51    1
    37     8     6   am
    38   110   109    1
    39   108   107    2
    40   107   106    1
    41    73    75   am
    42    73    72    1
    43   109   106    1
    44    88    86   am
    45    53    52    2
    46     6     5    1
    47     6     7    2
    48    51    52    1
    49    51    50    1
    50    71    72    1
    51    71    68    1
    52    70    69    2
    53     5     2    1
    54    69    68    1
    55   106   105    1
    56     1     2    1
    57     2     3    1
    58    68    67    1
    59    86    87    2
    60    86    85    1
    61   105    99   am
    62   114   115    1
    63    76    77    1
    64    97    98    1
    65    24    23    1
    66    99   100    2
    67    99    98    1
    68   118   119    1
    69   118   115    1
    70    22    21    1
    71    22    23    1
    72     3     9   am
    73     3     4    2
    74    67    61   am
    75     9    10    1
    76   119   120    1
    77   115   116    1
    78   116   117    2
    79    85    84    1
    80    15    13    1
    81    84    78   am
    82    78    79    2
    83    78    77    1
    84    98   101    1
    85    77    80    1
    86    21    18    1
    87    61    62    2
    88    61    60    1
    89    13    10    1
    90    13    14    1
    91    47    46    2
    92    59    60    1
    93    17    18    1
    94    17    11   am
    95    10    11    1
    96   101   102    1
    97   120   121    1
    98    80    81    1
    99    18    19    1
   100    60    63    1
   101    11    12    2
   102    46    45    1
   103    16    14    1
   104   102   104    1
   105   102   103    1
   106    19    20    2
   107    82    81    1
   108    81    83    1
   109    63    64    1
   110    45    48    1
   111    45    44    1
   112    48    49    1
   113    64    65    1
   114    64    66    1
   115    32    30    1
   116    30    29    1
   117    25    26    1
   118    29    26    1
   119    29    31    1
   120    36    35    2
   121    26    27    1
   122    27    28    2
   123    35    34    1
   124    39    41   ar
   125    39    38   ar
   126    37    34    1
   127    37    38    1
   128    34    33    1
   129    41    43   ar
   130    38    40   ar
   131    43    42   ar
   132    40    42   ar
