@<TRIPOS>MOLECULE
tmp/2r9sA00.pdb
 163 151 0 0 0
SMALL
GASTEIGER

@<TRIPOS>ATOM
      1  N         16.7630   16.5350   13.7090 N.3    21  ASN21      -0.1240
      2  CA        17.6190   16.7840   14.9210 C.3    21  ASN21       0.1653
      3  C         17.4000   15.7250   15.9880 C.2    21  ASN21       0.2266
      4  O         17.1740   16.0490   17.1730 O.2    21  ASN21      -0.2867
      5  CB        17.3880   18.2270   15.4910 C.3    21  ASN21       0.1155
      6  CG        18.5040   18.6970   16.4770 C.2    21  ASN21       0.2627
      7  OD1       19.6970   18.2820   16.3970 O.2    21  ASN21      -0.2716
      8  ND2       18.1140   19.5960   17.4120 N.am   21  ASN21      -0.0877
      9  N         17.9220   13.2300   18.7470 N.3    23  LYS23      -0.1245
     10  CA        18.8010   13.3270   19.8840 C.3    23  LYS23       0.1561
     11  C         18.4230   12.2280   20.9000 C.2    23  LYS23       0.2260
     12  O         17.2950   12.2440   21.3900 O.2    23  LYS23      -0.2867
     13  CB        18.5290   14.7060   20.4990 C.3    23  LYS23       0.0271
     14  CG        19.5660   15.2290   21.4720 C.3    23  LYS23       0.0035
     15  CD        18.9110   16.0780   22.6100 C.3    23  LYS23       0.0206
     16  CE        20.0020   16.9130   23.3680 C.3    23  LYS23       0.1093
     17  NZ        19.5800   17.3390   24.7440 N.3    23  LYS23      -0.1314
     18  N         17.6690   10.3870   24.2580 N.3    25  ILE25      -0.1231
     19  CA        17.2130   10.8320   25.5690 C.3    25  ILE25       0.1692
     20  C         16.8460    9.7010   26.5420 C.2    25  ILE25       0.2592
     21  O         16.4400    8.6250   26.1100 O.2    25  ILE25      -0.2718
     22  CB        16.0450   11.8240   25.4500 C.3    25  ILE25       0.0266
     23  CG1       14.9120   11.2130   24.6350 C.3    25  ILE25       0.0019
     24  CG2       16.5370   13.2210   24.9340 C.3    25  ILE25       0.0020
     25  CD1       13.6100   11.9140   24.8650 C.3    25  ILE25       0.0001
     26  N         17.0230    9.9520   27.8440 N.am   26  GLY26      -0.1957
     27  CA        16.7230    8.9840   28.9420 C.3    26  GLY26       0.1869
     28  C         17.4360    7.6240   28.8730 C.2    26  GLY26       0.2309
     29  O         18.4120    7.4860   28.1170 O.2    26  GLY26      -0.2863
     30  N         14.9310    5.8370   22.6040 N.3    33  VAL33      -0.1245
     31  CA        14.0530    6.9660   22.4130 C.3    33  VAL33       0.1561
     32  C         14.9460    8.1520   22.0530 C.2    33  VAL33       0.2260
     33  O         16.0260    8.3640   22.6880 O.2    33  VAL33      -0.2867
     34  CB        13.2500    7.2750   23.7040 C.3    33  VAL33       0.0252
     35  CG1       12.1610    8.3010   23.4410 C.3    33  VAL33       0.0019
     36  CG2       12.6780    5.9740   24.3130 C.3    33  VAL33       0.0019
     37  N         14.5860   12.5290   21.2400 N.3    35  ALA35      -0.1231
     38  CA        13.9110   13.8120   21.0430 C.3    35  ALA35       0.1694
     39  C         14.0600   14.2540   19.6050 C.2    35  ALA35       0.2592
     40  O         15.1270   14.1190   19.0280 O.2    35  ALA35      -0.2718
     41  CB        14.5120   14.8540   21.9160 C.3    35  ALA35       0.0304
     42  N         13.0250   14.8440   19.0180 N.am   36  ALA36      -0.1966
     43  CA        13.1300   15.3160   17.6210 C.3    36  ALA36       0.1728
     44  C         12.2520   16.4980   17.3980 C.2    36  ALA36       0.2616
     45  O         11.2880   16.6980   18.1290 O.2    36  ALA36      -0.2715
     46  CB        12.7480   14.1620   16.5810 C.3    36  ALA36       0.0334
     47  N         12.5500   17.2730   16.3670 N.am   37  TYR37      -0.1974
     48  CA        11.6160   18.3020   15.9180 C.3    37  TYR37       0.1639
     49  C         10.6850   17.7410   14.8140 C.2    37  TYR37       0.2290
     50  O         11.1470   17.2480   13.8350 O.2    37  TYR37      -0.2864
     51  CB        12.3640   19.5460   15.4340 C.3    37  TYR37       0.0560
     52  CG        11.4420   20.5760   14.8670 C.ar   37  TYR37      -0.0198
     53  CD1       10.4680   21.1800   15.6610 C.ar   37  TYR37      -0.0009
     54  CD2       11.5290   20.9340   13.5180 C.ar   37  TYR37      -0.0009
     55  CE1        9.5980   22.1370   15.1310 C.ar   37  TYR37       0.0417
     56  CE2       10.6790   21.8730   12.9660 C.ar   37  TYR37       0.0417
     57  CZ         9.7220   22.4730   13.7610 C.ar   37  TYR37       0.1957
     58  OH         8.8880   23.4020   13.1750 O.3    37  TYR37      -0.2866
     59  N          8.1530   19.6290   19.0490 N.3    44  ASN44      -0.1240
     60  CA         9.0450   18.5830   19.4550 C.3    44  ASN44       0.1653
     61  C          8.2240   17.3510   19.9190 C.2    44  ASN44       0.2266
     62  O          7.1570   17.4760   20.4850 O.2    44  ASN44      -0.2867
     63  CB         9.9960   19.1240   20.5320 C.3    44  ASN44       0.1155
     64  CG        10.8120   20.3580   20.0620 C.2    44  ASN44       0.2627
     65  OD1       11.3390   20.4400   18.9230 O.2    44  ASN44      -0.2716
     66  ND2       10.9620   21.3050   20.9770 N.am   44  ASN44      -0.0877
     67  N          8.8550   12.7910   20.8700 N.3    46  ALA46      -0.1245
     68  CA         9.7920   11.7320   21.2440 C.3    46  ALA46       0.1562
     69  C          9.5150   10.5370   20.2630 C.2    46  ALA46       0.2260
     70  O          8.3710   10.2630   19.9730 O.2    46  ALA46      -0.2867
     71  CB         9.5980   11.3060   22.7140 C.3    46  ALA46       0.0290
     72  N          1.1800    8.4360   28.5470 N.3    79  ILE79      -0.1245
     73  CA         1.7830    9.0290   27.3780 C.3    79  ILE79       0.1561
     74  C          0.8890    8.9080   26.0940 C.2    79  ILE79       0.2260
     75  O          0.3240    7.8170   25.7740 O.2    79  ILE79      -0.2867
     76  CB         3.2520    8.4110   27.1070 C.3    79  ILE79       0.0252
     77  CG1        4.0920    9.3090   26.1910 C.3    79  ILE79       0.0019
     78  CG2        3.1610    7.0160   26.5520 C.3    79  ILE79       0.0019
     79  CD1        4.5200   10.6100   26.8870 C.3    79  ILE79       0.0001
     80  N          5.7000    9.9880   20.1470 N.3   101  MET101     -0.1230
     81  CA         4.9560   10.4010   21.3320 C.3   101  MET101      0.1702
     82  C          5.2010   11.9170   21.5800 C.2   101  MET101      0.2592
     83  O          6.1230   12.4850   21.0440 O.2   101  MET101     -0.2718
     84  CB         5.4500    9.6270   22.5500 C.3   101  MET101      0.0401
     85  CG         5.4730    8.1760   22.3360 C.3   101  MET101      0.0596
     86  SD         6.4080    7.2040   23.5500 S.3   101  MET101     -0.1393
     87  CE         8.0450    7.3100   22.8650 C.3   101  MET101      0.0692
     88  N          4.3270   12.5530   22.3580 N.am  102  GLU102     -0.1966
     89  CA         4.6140   13.8510   22.9550 C.3   102  GLU102      0.1733
     90  C          5.9190   13.7450   23.7770 C.2   102  GLU102      0.2616
     91  O          6.2230   12.7100   24.3710 O.2   102  GLU102     -0.2715
     92  CB         3.4750   14.2910   23.8940 C.3   102  GLU102      0.0429
     93  CG         3.4130   13.4850   25.2200 C.3   102  GLU102      0.1163
     94  CD         2.0200   13.5990   25.8720 C.2   102  GLU102      0.3649
     95  OE1        1.3310   12.5440   26.0860 O.co2 102  GLU102     -0.2457
     96  OE2        1.5800   14.7770   26.0950 O.co2 102  GLU102     -0.2457
     97  N          6.6660   14.8520   23.7560 N.am  103  LEU103     -0.1963
     98  CA         7.9220   14.9680   24.4220 C.3   103  LEU103      0.1728
     99  C          7.6850   15.5820   25.7930 C.2   103  LEU103      0.2616
    100  O          7.0820   16.6710   25.8900 O.2   103  LEU103     -0.2715
    101  CB         8.8400   15.8740   23.6350 C.3   103  LEU103      0.0311
    102  CG        10.3020   16.0030   24.1140 C.3   103  LEU103      0.0022
    103  CD1       11.0270   14.6150   24.2610 C.3   103  LEU103      0.0001
    104  CD2       11.1100   16.9790   23.1590 C.3   103  LEU103      0.0001
    105  N          8.1980   14.8910   26.8130 N.am  104  MET104     -0.1963
    106  CA         8.2880   15.3670   28.2060 C.3   104  MET104      0.1736
    107  C          9.6990   15.8230   28.4670 C.2   104  MET104      0.2616
    108  O         10.5370   15.6940   27.6050 O.2   104  MET104     -0.2715
    109  CB         7.9500   14.2070   29.1270 C.3   104  MET104      0.0427
    110  CG         6.6100   13.5160   28.6990 C.3   104  MET104      0.0599
    111  SD         5.2260   14.6490   28.9580 S.3   104  MET104     -0.1393
    112  CE         5.0760   14.5240   30.7320 C.3   104  MET104      0.0692
    113  N          9.9430   16.3560   29.6520 N.am  105  ASP105     -0.1957
    114  CA        11.2190   16.9650   30.0000 C.3   105  ASP105      0.1840
    115  C         12.2320   16.0420   30.6900 C.2   105  ASP105      0.2622
    116  O         13.4240   16.3010   30.5820 O.2   105  ASP105     -0.2715
    117  CB        11.0350   18.3040   30.7530 C.3   105  ASP105      0.1450
    118  CG        10.1650   19.2960   29.9490 C.2   105  ASP105      0.3671
    119  OD1       10.4090   19.4430   28.7510 O.co2 105  ASP105     -0.2456
    120  OD2        9.2140   19.9320   30.4690 O.co2 105  ASP105     -0.2456
    121  N         11.7700   14.9710   31.3400 N.am  106  ALA106     -0.1963
    122  CA        12.6450   14.1280   32.1410 C.3   106  ALA106      0.1728
    123  C         11.8750   12.8870   32.6040 C.2   106  ALA106      0.2616
    124  O         10.6610   12.8220   32.4380 O.2   106  ALA106     -0.2715
    125  CB        13.1850   14.9320   33.3760 C.3   106  ALA106      0.0334
    126  N         12.5750   11.8940   33.1530 N.am  107  ASN107     -0.1972
    127  CA        11.9300   10.7360   33.7330 C.3   107  ASN107      0.1688
    128  C         11.9070   10.9280   35.2520 C.2   107  ASN107      0.2292
    129  O         12.3540   11.9550   35.7220 O.2   107  ASN107     -0.2864
    130  CB        12.5470    9.4010   33.2610 C.3   107  ASN107      0.1181
    131  CG        14.0120    9.2080   33.6650 C.2   107  ASN107      0.2629
    132  OD1       14.4490    9.5740   34.7460 O.2   107  ASN107     -0.2716
    133  ND2       14.7610    8.5570   32.7890 N.am  107  ASN107     -0.0877
    134  N         15.4340   11.5840   37.5280 N.3   109  GLN109     -0.1245
    135  CA        15.9970   12.9280   37.7130 C.3   109  GLN109      0.1566
    136  C         15.2760   13.7250   38.8430 C.2   109  GLN109      0.2260
    137  O         15.9130   14.3180   39.7430 O.2   109  GLN109     -0.2867
    138  CB        16.0430   13.6320   36.3220 C.3   109  GLN109      0.0367
    139  CG        16.8350   12.7650   35.2110 C.3   109  GLN109      0.0905
    140  CD        16.3920   12.9520   33.7060 C.2   109  GLN109      0.2608
    141  OE1       15.3910   12.3730   33.2180 O.2   109  GLN109     -0.2717
    142  NE2       17.2020   13.7230   32.9580 N.am  109  GLN109     -0.0878
    143  N         12.1910    5.1000   35.5720 N.3   146  SER146     -0.1217
    144  CA        12.6190    5.4500   34.2380 C.3   146  SER146      0.1889
    145  C         11.5460    5.2470   33.1390 C.2   146  SER146      0.2288
    146  O         11.7330    5.7250   32.0370 O.2   146  SER146     -0.2866
    147  CB        13.9060    4.7440   33.8960 C.3   146  SER146      0.2089
    148  OG        13.6180    3.3710   33.9890 O.3   146  SER146     -0.2183
    149  N          7.4990    9.6550   33.1420 N.3   149  VAL149     -0.1245
    150  CA         8.1290   10.8680   32.5690 C.3   149  VAL149      0.1561
    151  C          7.3680   12.0530   33.0550 C.2   149  VAL149      0.2260
    152  O          6.1850   11.9200   33.3650 O.2   149  VAL149     -0.2867
    153  CB         8.2180   10.8850   30.9680 C.3   149  VAL149      0.0252
    154  CG1        9.4260   10.1370   30.4390 C.3   149  VAL149      0.0019
    155  CG2        6.8760   10.4370   30.3290 C.3   149  VAL149      0.0019
    156  N          4.8880    5.9440   30.8560 N.3   158  LEU158     -0.1245
    157  CA         5.4610    5.6680   29.5380 C.3   158  LEU158      0.1561
    158  C          5.0260    4.3770   28.9050 C.2   158  LEU158      0.2260
    159  O          4.9610    4.2920   27.7000 O.2   158  LEU158     -0.2867
    160  CB         6.9930    5.6340   29.5460 C.3   158  LEU158      0.0270
    161  CG         7.8120    6.8230   29.0510 C.3   158  LEU158      0.0019
    162  CD1        9.2580    6.3580   28.7940 C.3   158  LEU158      0.0001
    163  CD2        7.1880    7.4550   27.8180 C.3   158  LEU158      0.0001
@<TRIPOS>BOND
     1    56    54   ar
     2    56    57   ar
     3    58    57    1
     4    54    52   ar
     5     1     2    1
     6    57    55   ar
     7    50    49    2
     8    49    48    1
     9    52    51    1
    10    52    53   ar
    11     2     5    1
    12     2     3    1
    13    55    53   ar
    14    51    48    1
    15     5     6    1
    16    48    47    1
    17     3     4    2
    18    47    44   am
    19     7     6    2
    20     6     8   am
    21    46    43    1
    22    44    43    1
    23    44    45    2
    24    43    42    1
    25     9    10    1
    26    65    64    2
    27    42    39   am
    28    40    39    2
    29    59    60    1
    30    60    61    1
    31    60    63    1
    32    39    38    1
    33    10    13    1
    34    10    11    1
    35    61    62    2
    36    70    69    2
    37    64    63    1
    38    64    66   am
    39    80    81    1
    40    69    68    1
    41    13    14    1
    42    67    68    1
    43    11    12    2
    44    38    37    1
    45    38    41    1
    46    83    82    2
    47    68    71    1
    48    81    82    1
    49    81    84    1
    50    14    15    1
    51    82    88   am
    52    32    31    1
    53    32    33    2
    54    85    84    1
    55    85    86    1
    56    88    89    1
    57    31    30    1
    58    31    34    1
    59    15    16    1
    60    87    86    1
    61    89    90    1
    62    89    92    1
    63   104   102    1
    64    16    17    1
    65    35    34    1
    66   101   102    1
    67   101    98    1
    68    34    36    1
    69    97    90   am
    70    97    98    1
    71    90    91    2
    72    92    93    1
    73   102   103    1
    74    18    19    1
    75    98    99    1
    76    23    25    1
    77    23    22    1
    78    24    22    1
    79    93    94    1
    80    22    19    1
    81    19    20    1
    82    75    74    2
    83    99   100    2
    84    99   105   am
    85    94    95   ar
    86    94    96   ar
    87    74    73    1
    88    21    20    2
    89    77    79    1
    90    77    76    1
    91    20    26   am
    92    78    76    1
    93   105   106    1
    94    76    73    1
    95    73    72    1
    96   108   107    2
    97   159   158    2
    98   163   161    1
    99    26    27    1
   100    29    28    2
   101   106   107    1
   102   106   109    1
   103   107   113   am
   104   110   111    1
   105   110   109    1
   106   119   118   ar
   107   162   161    1
   108    28    27    1
   109   158   157    1
   110   111   112    1
   111   161   160    1
   112   157   160    1
   113   157   156    1
   114   113   114    1
   115   118   120   ar
   116   118   117    1
   117   114   115    1
   118   114   117    1
   119   155   153    1
   120   154   153    1
   121   116   115    2
   122   115   121   am
   123   153   150    1
   124   121   122    1
   125   146   145    2
   126   122   123    1
   127   122   125    1
   128   124   123    2
   129   150   151    1
   130   150   149    1
   131   123   126   am
   132   133   131   am
   133   142   140   am
   134   151   152    2
   135   145   144    1
   136   126   127    1
   137   141   140    2
   138   130   131    1
   139   130   127    1
   140   131   132    2
   141   140   139    1
   142   127   128    1
   143   147   148    1
   144   147   144    1
   145   144   143    1
   146   139   138    1
   147   128   129    2
   148   138   135    1
   149   134   135    1
   150   135   136    1
   151   136   137    2
