@<TRIPOS>MOLECULE
tmp/2r9vA01.pdb
 94 92 0 0 0
SMALL
GASTEIGER

@<TRIPOS>ATOM
      1  N         35.0630    7.9320   81.8010 N.3    88  LEU88      -0.1245
      2  CA        35.7130    8.1150   83.0760 C.3    88  LEU88       0.1561
      3  C         35.7160    6.7620   83.7660 C.2    88  LEU88       0.2260
      4  O         34.7450    6.0320   83.7040 O.2    88  LEU88      -0.2867
      5  CB        34.9960    9.1600   83.8870 C.3    88  LEU88       0.0270
      6  CG        34.9180   10.5370   83.2620 C.3    88  LEU88       0.0019
      7  CD1       34.0400   11.4290   84.1040 C.3    88  LEU88       0.0001
      8  CD2       36.3590   11.1340   83.1410 C.3    88  LEU88       0.0001
      9  N         44.0260   15.5020   91.8870 N.3   169  GLN169     -0.1231
     10  CA        42.9370   16.2960   91.3290 C.3   169  GLN169      0.1698
     11  C         41.5840   15.9630   91.9290 C.2   169  GLN169      0.2592
     12  O         40.5660   16.5660   91.5700 O.2   169  GLN169     -0.2718
     13  CB        42.9020   16.2120   89.7950 C.3   169  GLN169      0.0381
     14  CG        44.1870   16.7610   89.1200 C.3   169  GLN169      0.0905
     15  CD        44.6330   18.1240   89.6360 C.2   169  GLN169      0.2608
     16  OE1       43.8480   19.0740   89.6920 O.2   169  GLN169     -0.2717
     17  NE2       45.9020   18.2200   90.0340 N.am  169  GLN169     -0.0878
     18  N         41.5470   15.0010   92.8410 N.am  170  LYS170     -0.1966
     19  CA        40.3160   14.7130   93.5670 C.3   170  LYS170      0.1728
     20  C         39.8190   16.0030   94.2280 C.2   170  LYS170      0.2617
     21  O         40.5160   16.6230   95.0180 O.2   170  LYS170     -0.2715
     22  CB        40.5590   13.6480   94.6270 C.3   170  LYS170      0.0311
     23  CG        39.3100   13.2470   95.4190 C.3   170  LYS170      0.0038
     24  CD        38.5320   12.1550   94.7580 C.3   170  LYS170      0.0206
     25  CE        37.2490   11.8250   95.5260 C.3   170  LYS170      0.1093
     26  NZ        36.1270   12.7740   95.1880 N.3   170  LYS170     -0.1314
     27  N         38.6180   16.4230   93.8860 N.am  171  GLY171     -0.1940
     28  CA        38.0400   17.6310   94.4460 C.3   171  GLY171      0.2014
     29  C         38.5430   18.9200   93.8270 C.2   171  GLY171      0.2639
     30  O         38.1020   19.9920   94.2250 O.2   171  GLY171     -0.2714
     31  N         39.4740   18.8350   92.8670 N.am  172  GLN172     -0.1963
     32  CA        40.0060   20.0340   92.2010 C.3   172  GLN172      0.1733
     33  C         39.1930   20.4610   90.9550 C.2   172  GLN172      0.2617
     34  O         39.4670   21.4990   90.3740 O.2   172  GLN172     -0.2715
     35  CB        41.4620   19.8150   91.8140 C.3   172  GLN172      0.0408
     36  CG        42.4210   19.6980   93.0030 C.3   172  GLN172      0.0908
     37  CD        42.6540   21.0140   93.6520 C.2   172  GLN172      0.2608
     38  OE1       43.0440   21.9610   93.0040 O.2   172  GLN172     -0.2717
     39  NE2       42.4120   21.0900   94.9400 N.am  172  GLN172     -0.0878
     40  N         38.2260   19.6550   90.5330 N.am  173  GLY173     -0.1940
     41  CA        37.4140   19.9470   89.3550 C.3   173  GLY173      0.2014
     42  C         38.1800   19.7960   88.0580 C.2   173  GLY173      0.2639
     43  O         38.0690   20.6250   87.1830 O.2   173  GLY173     -0.2714
     44  N         39.0140   18.7630   87.9580 N.am  174  VAL174     -0.1963
     45  CA        39.8460   18.5590   86.7700 C.3   174  VAL174      0.1727
     46  C         39.6690   17.1210   86.2810 C.2   174  VAL174      0.2616
     47  O         39.9040   16.1870   87.0320 O.2   174  VAL174     -0.2715
     48  CB        41.3300   18.8670   87.0510 C.3   174  VAL174      0.0290
     49  CG1       42.2180   18.4830   85.8540 C.3   174  VAL174      0.0023
     50  CG2       41.4810   20.3570   87.3940 C.3   174  VAL174      0.0023
     51  N         39.2050   16.9600   85.0390 N.am  175  TYR175     -0.1974
     52  CA        39.0660   15.6410   84.4370 C.3   175  TYR175      0.1639
     53  C         40.4460   15.2700   83.8430 C.2   175  TYR175      0.2290
     54  O         41.0710   16.0800   83.1460 O.2   175  TYR175     -0.2864
     55  CB        37.9620   15.6470   83.3850 C.3   175  TYR175      0.0560
     56  CG        36.5690   15.9430   83.9330 C.ar  175  TYR175     -0.0198
     57  CD1       36.1090   17.2590   84.0720 C.ar  175  TYR175     -0.0009
     58  CD2       35.7100   14.9180   84.2870 C.ar  175  TYR175     -0.0009
     59  CE1       34.8450   17.5390   84.5710 C.ar  175  TYR175      0.0417
     60  CE2       34.4310   15.1890   84.7470 C.ar  175  TYR175      0.0417
     61  CZ        34.0020   16.5080   84.9120 C.ar  175  TYR175      0.1957
     62  OH        32.6970   16.7830   85.4060 O.3   175  TYR175     -0.2866
     63  N         37.8950    7.7840   89.1940 N.3   201  GLU201     -0.1231
     64  CA        36.5500    8.3340   89.2320 C.3   201  GLU201      0.1699
     65  C         36.4540    9.4850   88.2410 C.2   201  GLU201      0.2592
     66  O         35.4190    9.7140   87.6610 O.2   201  GLU201     -0.2718
     67  CB        36.3340    8.8450   90.6530 C.3   201  GLU201      0.0402
     68  CG        34.9620    9.2520   91.0310 C.3   201  GLU201      0.1161
     69  CD        34.9070    9.6980   92.5190 C.2   201  GLU201      0.3649
     70  OE1       35.7970   10.5110   92.9560 O.co2 201  GLU201     -0.2457
     71  OE2       33.9790    9.2280   93.2330 O.co2 201  GLU201     -0.2457
     72  N         37.5580   10.2130   88.0550 N.am  202  TYR202     -0.1976
     73  CA        37.6140   11.3660   87.1520 C.3   202  TYR202      0.1639
     74  C         38.6930   11.2110   86.0800 C.2   202  TYR202      0.2290
     75  O         39.0990   12.2090   85.4910 O.2   202  TYR202     -0.2864
     76  CB        37.9340   12.6290   87.9570 C.3   202  TYR202      0.0560
     77  CG        39.1220   12.5110   88.8890 C.ar  202  TYR202     -0.0198
     78  CD1       40.4230   12.7910   88.4560 C.ar  202  TYR202     -0.0009
     79  CD2       38.9470   12.1690   90.2130 C.ar  202  TYR202     -0.0009
     80  CE1       41.5030   12.6840   89.3230 C.ar  202  TYR202      0.0417
     81  CE2       40.0180   12.0700   91.0710 C.ar  202  TYR202      0.0417
     82  CZ        41.2910   12.3250   90.6190 C.ar  202  TYR202      0.1957
     83  OH        42.3410   12.2220   91.4630 O.3   202  TYR202     -0.2866
     84  N         34.6790   23.1690   81.2260 N.3   235  ARG235     -0.1245
     85  CA        35.2810   22.3810   82.2680 C.3   235  ARG235      0.1563
     86  C         36.7810   22.3170   82.0550 C.2   235  ARG235      0.2260
     87  O         37.3070   22.7830   81.0400 O.2   235  ARG235     -0.2867
     88  CB        34.5910   21.0090   82.3140 C.3   235  ARG235      0.0307
     89  CG        33.1400   21.1590   82.7830 C.3   235  ARG235      0.0489
     90  CD        32.3580   19.9090   82.7790 C.3   235  ARG235      0.2205
     91  NE        32.0170   19.4410   81.4530 N.pl3 235  ARG235     -0.0865
     92  CZ        31.4380   18.2670   81.2360 C.cat 235  ARG235      0.5346
     93  NH1       31.1820   17.4740   82.2670 N.pl3 235  ARG235      0.1354
     94  NH2       31.1580   17.8560   80.0050 N.pl3 235  ARG235      0.1354
@<TRIPOS>BOND
     1    94    92    1
     2    87    86    2
     3    84    85    1
     4    92    91    2
     5    92    93    1
     6    91    90    1
     7     1     2    1
     8    86    85    1
     9    85    88    1
    10    88    89    1
    11    90    89    1
    12     2     3    1
    13     2     5    1
    14     8     6    1
    15    54    53    2
    16     6     5    1
    17     6     7    1
    18    55    56    1
    19    55    52    1
    20     4     3    2
    21    53    52    1
    22    56    57   ar
    23    56    58   ar
    24    57    59   ar
    25    58    60   ar
    26    52    51    1
    27    59    61   ar
    28    60    61   ar
    29    61    62    1
    30    51    46   am
    31    75    74    2
    32    49    48    1
    33    74    73    1
    34    46    45    1
    35    46    47    2
    36    45    48    1
    37    45    44    1
    38    48    50    1
    39    73    76    1
    40    73    72    1
    41    43    42    2
    42    66    65    2
    43    76    77    1
    44    44    42   am
    45    72    65   am
    46    42    41    1
    47    65    64    1
    48    78    77   ar
    49    78    80   ar
    50    77    79   ar
    51    14    15    1
    52    14    13    1
    53    63    64    1
    54    64    67    1
    55    80    82   ar
    56    41    40    1
    57    15    16    2
    58    15    17   am
    59    13    10    1
    60    79    81   ar
    61    34    33    2
    62    40    33   am
    63    82    81   ar
    64    82    83    1
    65    67    68    1
    66    33    32    1
    67    68    69    1
    68    10     9    1
    69    10    11    1
    70    12    11    2
    71    35    32    1
    72    35    36    1
    73    11    18   am
    74    32    31    1
    75    69    70   ar
    76    69    71   ar
    77    18    19    1
    78    31    29   am
    79    36    37    1
    80    38    37    2
    81    19    20    1
    82    19    22    1
    83    37    39   am
    84    29    30    2
    85    29    28    1
    86    27    20   am
    87    27    28    1
    88    20    21    2
    89    22    23    1
    90    24    23    1
    91    24    25    1
    92    26    25    1
