@<TRIPOS>MOLECULE
tmp/2r9vA00.pdb
 190 183 0 0 0
SMALL
GASTEIGER

@<TRIPOS>ATOM
      1  N         65.9560    8.4220   82.0740 N.3   154  ARG154     -0.1231
      2  CA        65.1320    7.3080   82.5470 C.3   154  ARG154      0.1694
      3  C         65.2760    7.1670   84.0630 C.2   154  ARG154      0.2592
      4  O         66.2920    7.4950   84.6320 O.2   154  ARG154     -0.2718
      5  CB        65.4760    5.9740   81.8490 C.3   154  ARG154      0.0321
      6  CG        66.9120    5.4520   82.1480 C.3   154  ARG154      0.0489
      7  CD        67.2450    4.0400   81.5330 C.3   154  ARG154      0.2205
      8  NE        66.6330    2.8950   82.2560 N.pl3 154  ARG154     -0.0865
      9  CZ        67.0640    2.3760   83.4280 C.cat 154  ARG154      0.5346
     10  NH1       68.1190    2.8880   84.0950 N.pl3 154  ARG154      0.1354
     11  NH2       66.4120    1.3380   83.9600 N.pl3 154  ARG154      0.1354
     12  N         64.2090    6.7270   84.7040 N.am  155  GLN155     -0.1966
     13  CA        64.2070    6.3920   86.1120 C.3   155  GLN155      0.1733
     14  C         64.5860    7.5650   86.9940 C.2   155  GLN155      0.2617
     15  O         65.2460    7.4010   88.0030 O.2   155  GLN155     -0.2715
     16  CB        65.0850    5.1420   86.3550 C.3   155  GLN155      0.0408
     17  CG        64.4840    3.8390   85.7780 C.3   155  GLN155      0.0908
     18  CD        63.2000    3.3870   86.5540 C.2   155  GLN155      0.2608
     19  OE1       63.3000    2.8530   87.6810 O.2   155  GLN155     -0.2717
     20  NE2       61.9990    3.6040   85.9570 N.am  155  GLN155     -0.0878
     21  N         64.1750    8.7610   86.5980 N.am  156  THR156     -0.1937
     22  CA        64.3790    9.9330   87.4240 C.3   156  THR156      0.2028
     23  C         63.1060   10.3400   88.1540 C.2   156  THR156      0.2643
     24  O         63.1490   11.2620   88.9580 O.2   156  THR156     -0.2714
     25  CB        64.9550   11.1270   86.6250 C.3   156  THR156      0.1808
     26  OG1       64.1160   11.4150   85.5020 O.3   156  THR156     -0.2208
     27  CG2       66.3400   10.7770   86.1430 C.3   156  THR156      0.0379
     28  N         61.9850    9.6580   87.8920 N.am  157  GLY157     -0.1939
     29  CA        60.7450    9.9830   88.5590 C.3   157  GLY157      0.2014
     30  C         59.6880   10.7460   87.7660 C.2   157  GLY157      0.2639
     31  O         58.7670   11.3120   88.3550 O.2   157  GLY157     -0.2714
     32  N         59.8010   10.7530   86.4360 N.am  158  LYS158     -0.1963
     33  CA        58.8910   11.5270   85.5730 C.3   158  LYS158      0.1728
     34  C         57.3930   11.1070   85.6640 C.2   158  LYS158      0.2617
     35  O         56.5130   11.9210   85.9740 O.2   158  LYS158     -0.2715
     36  CB        59.4120   11.4470   84.1350 C.3   158  LYS158      0.0311
     37  CG        60.7420   12.2180   83.9190 C.3   158  LYS158      0.0038
     38  CD        61.1800   12.2490   82.4500 C.3   158  LYS158      0.0206
     39  CE        61.2720   10.8730   81.7540 C.3   158  LYS158      0.1093
     40  NZ        62.2770    9.9570   82.3350 N.3   158  LYS158     -0.1314
     41  N         57.1110    9.8310   85.4190 N.am  159  THR159     -0.1937
     42  CA        55.7440    9.3120   85.5530 C.3   159  THR159      0.2028
     43  C         55.1610    9.5820   86.9310 C.2   159  THR159      0.2642
     44  O         54.0090   10.0570   87.0430 O.2   159  THR159     -0.2714
     45  CB        55.7290    7.8500   85.2030 C.3   159  THR159      0.1808
     46  OG1       56.1660    7.7390   83.8570 O.3   159  THR159     -0.2208
     47  CG2       54.3190    7.1870   85.3470 C.3   159  THR159      0.0379
     48  N         55.9610    9.3470   87.9660 N.am  160  ALA160     -0.1963
     49  CA        55.5750    9.6160   89.3800 C.3   160  ALA160      0.1728
     50  C         54.9990   11.0050   89.5880 C.2   160  ALA160      0.2616
     51  O         54.0170   11.1280   90.2640 O.2   160  ALA160     -0.2715
     52  CB        56.7860    9.4370   90.3090 C.3   160  ALA160      0.0334
     53  N         55.6380   12.0520   89.0600 N.am  161  ILE161     -0.1977
     54  CA        55.1200   13.4230   89.1820 C.3   161  ILE161      0.1596
     55  C         53.7320   13.5040   88.5290 C.2   161  ILE161      0.2287
     56  O         52.7720   14.0020   89.0940 O.2   161  ILE161     -0.2864
     57  CB        55.9790   14.4810   88.4240 C.3   161  ILE161      0.0276
     58  CG1       57.4050   14.6070   88.9460 C.3   161  ILE161      0.0022
     59  CG2       55.3150   15.8420   88.4760 C.3   161  ILE161      0.0022
     60  CD1       57.4750   14.6470   90.3770 C.3   161  ILE161      0.0001
     61  N         51.1140   11.4080   90.4670 N.3   164  ASP164     -0.1239
     62  CA        50.7440   12.1100   91.7080 C.3   164  ASP164      0.1674
     63  C         49.8940   13.3450   91.4670 C.2   164  ASP164      0.2266
     64  O         48.9280   13.5940   92.2050 O.2   164  ASP164     -0.2867
     65  CB        51.9790   12.4490   92.5130 C.3   164  ASP164      0.1410
     66  CG        52.5420   11.2080   93.2620 C.2   164  ASP164      0.3668
     67  OD1       51.9360   10.1130   93.2570 O.co2 164  ASP164     -0.2456
     68  OD2       53.5910   11.3530   93.8830 O.co2 164  ASP164     -0.2456
     69  N         55.1060    2.1910   76.5830 N.3   183  GLN183     -0.1245
     70  CA        55.5840    1.5770   77.8070 C.3   183  GLN183      0.1566
     71  C         55.1790    0.1080   77.8170 C.2   183  GLN183      0.2260
     72  O         54.1880   -0.2630   77.1980 O.2   183  GLN183     -0.2867
     73  CB        54.9450    2.2350   79.0320 C.3   183  GLN183      0.0367
     74  CG        54.8890    3.7730   79.1290 C.3   183  GLN183      0.0905
     75  CD        54.2880    4.1950   80.5150 C.2   183  GLN183      0.2608
     76  OE1       54.6760    3.6540   81.5900 O.2   183  GLN183     -0.2717
     77  NE2       53.3480    5.1410   80.4920 N.am  183  GLN183     -0.0878
     78  N         52.6870   10.3490   78.1740 N.3   242  ASP242     -0.1225
     79  CA        53.7830    9.5650   78.7320 C.3   242  ASP242      0.1805
     80  C         54.2040    8.3740   77.8190 C.2   242  ASP242      0.2597
     81  O         53.6810    7.2370   77.9640 O.2   242  ASP242     -0.2718
     82  CB        53.3420    9.0720   80.1200 C.3   242  ASP242      0.1424
     83  CG        54.4800    8.5650   80.9730 C.2   242  ASP242      0.3668
     84  OD1       55.6470    8.5860   80.5290 O.co2 242  ASP242     -0.2456
     85  OD2       54.1860    8.1410   82.1180 O.co2 242  ASP242     -0.2456
     86  N         55.1650    8.5850   76.9090 N.am  243  ASP243     -0.1974
     87  CA        55.8820    9.8590   76.7190 C.3   243  ASP243      0.1709
     88  C         56.0520   10.2080   75.2280 C.2   243  ASP243      0.2293
     89  O         55.8110    9.3760   74.3350 O.2   243  ASP243     -0.2864
     90  CB        57.2400    9.7990   77.4700 C.3   243  ASP243      0.1436
     91  CG        58.1710    8.7690   76.9070 C.2   243  ASP243      0.3671
     92  OD1       58.4220    8.8630   75.6980 O.co2 243  ASP243     -0.2456
     93  OD2       58.6650    7.8790   77.6590 O.co2 243  ASP243     -0.2456
     94  N         58.9440    8.2020   73.1390 N.3   246  LYS246     -0.1245
     95  CA        58.4610    6.9700   72.5370 C.3   246  LYS246      0.1561
     96  C         57.5300    7.2560   71.3720 C.2   246  LYS246      0.2260
     97  O         57.5320    6.5410   70.3940 O.2   246  LYS246     -0.2867
     98  CB        57.8140    6.0430   73.5830 C.3   246  LYS246      0.0271
     99  CG        58.8280    5.5080   74.5760 C.3   246  LYS246      0.0035
    100  CD        58.2010    4.6980   75.6610 C.3   246  LYS246      0.0206
    101  CE        59.2730    4.1600   76.6080 C.3   246  LYS246      0.1093
    102  NZ        59.9730    5.3190   77.2630 N.3   246  LYS246     -0.1314
    103  N         62.0130   11.9300   77.6110 N.3   300  GLU300     -0.1245
    104  CA        63.1450   11.2320   78.1580 C.3   300  GLU300      0.1567
    105  C         64.4270   11.7050   77.5070 C.2   300  GLU300      0.2260
    106  O         64.5420   11.6710   76.2920 O.2   300  GLU300     -0.2867
    107  CB        63.0190    9.7330   77.9110 C.3   300  GLU300      0.0388
    108  CG        64.2200    8.8950   78.4010 C.3   300  GLU300      0.1160
    109  CD        64.0950    7.3980   78.0560 C.2   300  GLU300      0.3649
    110  OE1       63.3570    6.6670   78.7350 O.co2 300  GLU300     -0.2457
    111  OE2       64.7600    6.9610   77.0900 O.co2 300  GLU300     -0.2457
    112  N         68.3360   12.4100   92.2950 N.3   329  PHE329     -0.1241
    113  CA        67.6010   11.2210   92.6290 C.3   329  PHE329      0.1605
    114  C         68.4590   10.3120   93.4810 C.2   329  PHE329      0.2264
    115  O         68.0370    9.8220   94.5130 O.2   329  PHE329     -0.2867
    116  CB        67.1940   10.4960   91.3560 C.3   329  PHE329      0.0534
    117  CG        66.2610    9.3510   91.5960 C.ar  329  PHE329     -0.0203
    118  CD1       66.7550    8.0830   91.8540 C.ar  329  PHE329     -0.0042
    119  CD2       64.8870    9.5470   91.5880 C.ar  329  PHE329     -0.0042
    120  CE1       65.9020    7.0340   92.0840 C.ar  329  PHE329     -0.0003
    121  CE2       64.0340    8.5080   91.8260 C.ar  329  PHE329     -0.0003
    122  CZ        64.5400    7.2480   92.0710 C.ar  329  PHE329     -0.0000
    123  N         64.2370   13.5110   96.3190 N.3   334  ARG334     -0.1231
    124  CA        63.1300   13.0270   95.5500 C.3   334  ARG334      0.1679
    125  C         61.8630   13.6780   96.0690 C.2   334  ARG334      0.2434
    126  O         61.5780   13.5980   97.2770 O.2   334  ARG334     -0.2733
    127  CB        63.0000   11.5230   95.7060 C.3   334  ARG334      0.0321
    128  CG        64.2590   10.7660   95.3490 C.3   334  ARG334      0.0489
    129  CD        63.9460    9.3140   95.4240 C.3   334  ARG334      0.2205
    130  NE        65.0830    8.5100   95.0260 N.pl3 334  ARG334     -0.0865
    131  CZ        65.8250    7.7850   95.8490 C.cat 334  ARG334      0.5346
    132  NH1       65.5790    7.7710   97.1520 N.pl3 334  ARG334      0.1354
    133  NH2       66.8320    7.0670   95.3690 N.pl3 334  ARG334      0.1354
    134  N         61.0620   14.2600   95.1610 N.am  335  PRO335     -0.2729
    135  CA        61.2490   14.2750   93.7070 C.3   335  PRO335      0.1401
    136  C         62.5150   14.9920   93.2530 C.2   335  PRO335      0.2269
    137  O         62.8600   16.0210   93.7990 O.2   335  PRO335     -0.2865
    138  CB        60.0210   14.9860   93.2160 C.3   335  PRO335      0.0296
    139  CG        59.5750   15.7880   94.3530 C.3   335  PRO335      0.0237
    140  CD        59.8430   14.9830   95.5440 C.3   335  PRO335      0.0939
    141  N         59.6560   14.6400   99.1350 N.3   399  GLN399     -0.1231
    142  CA        58.2830   14.2070   99.3260 C.3   399  GLN399      0.1698
    143  C         58.1270   12.7950   98.8140 C.2   399  GLN399      0.2592
    144  O         58.5920   12.4700   97.7430 O.2   399  GLN399     -0.2718
    145  CB        57.3830   15.1600   98.5600 C.3   399  GLN399      0.0381
    146  CG        55.8840   15.0000   98.7710 C.3   399  GLN399      0.0905
    147  CD        55.1300   16.1790   98.1880 C.2   399  GLN399      0.2608
    148  OE1       55.7470   17.1430   97.7640 O.2   399  GLN399     -0.2717
    149  NE2       53.7990   16.1000   98.1460 N.am  399  GLN399     -0.0878
    150  N         57.4260   11.9590   99.5590 N.am  400  GLU400     -0.1966
    151  CA        57.2590   10.5800   99.1800 C.3   400  GLU400      0.1733
    152  C         56.2570   10.4510   98.0520 C.2   400  GLU400      0.2616
    153  O         55.3500   11.2740   97.8730 O.2   400  GLU400     -0.2715
    154  CB        56.8240    9.7580  100.3840 C.3   400  GLU400      0.0429
    155  CG        57.9900    9.4100  101.3430 C.3   400  GLU400      0.1163
    156  CD        57.5240    8.6360  102.6250 C.2   400  GLU400      0.3649
    157  OE1       56.3270    8.1690  102.6810 O.co2 400  GLU400     -0.2457
    158  OE2       58.3780    8.4920  103.5720 O.co2 400  GLU400     -0.2457
    159  N         56.4260    9.3960   97.2780 N.am  401  GLN401     -0.1963
    160  CA        55.5260    9.1320   96.1690 C.3   401  GLN401      0.1733
    161  C         54.1100    8.8220   96.6940 C.2   401  GLN401      0.2616
    162  O         53.9360    8.3150   97.7980 O.2   401  GLN401     -0.2715
    163  CB        56.0680    7.9990   95.3020 C.3   401  GLN401      0.0408
    164  CG        55.3560    7.8430   94.0170 C.3   401  GLN401      0.0908
    165  CD        55.9410    6.7840   93.1240 C.2   401  GLN401      0.2608
    166  OE1       56.8710    6.0640   93.5100 O.2   401  GLN401     -0.2717
    167  NE2       55.4080    6.6870   91.9000 N.am  401  GLN401     -0.0878
    168  N         53.1200    9.1940   95.8940 N.am  402  TYR402     -0.1974
    169  CA        51.6900    8.9610   96.1740 C.3   402  TYR402      0.1639
    170  C         51.1060    9.7470   97.3460 C.2   402  TYR402      0.2290
    171  O         50.0320    9.3890   97.8940 O.2   402  TYR402     -0.2864
    172  CB        51.4350    7.4980   96.3850 C.3   402  TYR402      0.0560
    173  CG        51.9770    6.6130   95.3230 C.ar  402  TYR402     -0.0198
    174  CD1       51.4810    6.6760   94.0340 C.ar  402  TYR402     -0.0009
    175  CD2       52.9050    5.6320   95.6160 C.ar  402  TYR402     -0.0009
    176  CE1       51.9450    5.8250   93.0450 C.ar  402  TYR402      0.0417
    177  CE2       53.3660    4.7690   94.6350 C.ar  402  TYR402      0.0417
    178  CZ        52.8940    4.8970   93.3360 C.ar  402  TYR402      0.1957
    179  OH        53.3340    4.0710   92.3250 O.3   402  TYR402     -0.2866
    180  N         61.9390   15.5800  108.0580 N.3   430  ARG430     -0.1245
    181  CA        60.8000   14.7880  107.5380 C.3   430  ARG430      0.1563
    182  C         59.8310   14.4650  108.6780 C.2   430  ARG430      0.2260
    183  O         58.6250   14.6970  108.5720 O.2   430  ARG430     -0.2867
    184  CB        61.2560   13.4800  106.8450 C.3   430  ARG430      0.0307
    185  CG        62.3680   13.6340  105.7780 C.3   430  ARG430      0.0489
    186  CD        61.9100   14.1280  104.4050 C.3   430  ARG430      0.2205
    187  NE        61.9090   13.0910  103.3340 N.pl3 430  ARG430     -0.0865
    188  CZ        60.8300   12.5080  102.7760 C.cat 430  ARG430      0.5346
    189  NH1       59.5740   12.7740  103.1770 N.pl3 430  ARG430      0.1354
    190  NH2       61.0120   11.6280  101.7980 N.pl3 430  ARG430      0.1354
@<TRIPOS>BOND
     1    97    96    2
     2    96    95    1
     3    95    94    1
     4    95    98    1
     5    98    99    1
     6    89    88    2
     7    99   100    1
     8    88    87    1
     9   100   101    1
    10    92    91   ar
    11   106   105    2
    12    69    70    1
    13   101   102    1
    14    87    86    1
    15    87    90    1
    16    91    90    1
    17    91    93   ar
    18    86    80   am
    19   111   109   ar
    20    72    71    2
    21   105   104    1
    22   103   104    1
    23    70    71    1
    24    70    73    1
    25    80    81    2
    26    80    79    1
    27   107   104    1
    28   107   108    1
    29   109   108    1
    30   109   110   ar
    31    78    79    1
    32    79    82    1
    33    73    74    1
    34    74    75    1
    35    82    83    1
    36    77    75   am
    37    75    76    2
    38    84    83   ar
    39    83    85   ar
    40     7     6    1
    41     7     8    1
    42    39    40    1
    43    39    38    1
    44     5     6    1
    45     5     2    1
    46     1     2    1
    47     8     9    2
    48    38    37    1
    49     2     3    1
    50     9    11    1
    51     9    10    1
    52    46    45    1
    53    37    36    1
    54     3     4    2
    55     3    12   am
    56    36    33    1
    57    12    13    1
    58    45    47    1
    59    45    42    1
    60    41    42    1
    61    41    34   am
    62    26    25    1
    63    42    43    1
    64    33    34    1
    65    33    32    1
    66    34    35    2
    67    17    16    1
    68    17    18    1
    69    20    18   am
    70    13    16    1
    71    13    14    1
    72    27    25    1
    73    32    30   am
    74    18    19    2
    75    21    14   am
    76    21    22    1
    77    25    22    1
    78    43    44    2
    79    43    48   am
    80    14    15    2
    81    22    23    1
    82    30    31    2
    83    30    29    1
    84    28    23   am
    85    28    29    1
    86    48    49    1
    87    23    24    2
    88    57    59    1
    89    57    58    1
    90    57    54    1
    91    55    56    2
    92    55    54    1
    93    58    60    1
    94    53    54    1
    95    53    50   am
    96    49    50    1
    97    49    52    1
    98    50    51    2
    99    61    62    1
   100   116   117    1
   101   116   113    1
   102    63    62    1
   103    63    64    2
   104   119   117   ar
   105   119   121   ar
   106   117   118   ar
   107    62    65    1
   108   121   122   ar
   109   118   120   ar
   110   167   165   am
   111   122   120   ar
   112   112   113    1
   113   179   178    1
   114    65    66    1
   115   113   114    1
   116   176   178   ar
   117   176   174   ar
   118   165   166    2
   119   165   164    1
   120   138   135    1
   121   138   139    1
   122   136   135    1
   123   136   137    2
   124    67    66   ar
   125    66    68   ar
   126   178   177   ar
   127   114   115    2
   128   135   134    1
   129   164   163    1
   130   174   173   ar
   131   139   140    1
   132   177   175   ar
   133   130   129    1
   134   130   131    2
   135   134   140    1
   136   134   125   am
   137   163   160    1
   138   173   175   ar
   139   173   172    1
   140   128   129    1
   141   128   127    1
   142   133   131    1
   143   124   127    1
   144   124   125    1
   145   124   123    1
   146   131   132    1
   147   168   169    1
   148   168   161   am
   149   125   126    2
   150   160   161    1
   151   160   159    1
   152   169   172    1
   153   169   170    1
   154   161   162    2
   155   159   152   am
   156   170   171    2
   157   144   143    2
   158   148   147    2
   159   153   152    2
   160   152   151    1
   161   149   147   am
   162   147   146    1
   163   145   146    1
   164   145   142    1
   165   143   142    1
   166   143   150   am
   167   141   142    1
   168   151   150    1
   169   151   154    1
   170   154   155    1
   171   155   156    1
   172   190   188    1
   173   156   157   ar
   174   156   158   ar
   175   188   189    1
   176   188   187    2
   177   187   186    1
   178   186   185    1
   179   185   184    1
   180   184   181    1
   181   181   180    1
   182   181   182    1
   183   183   182    2
