@<TRIPOS>MOLECULE
tmp/2r9wA00.pdb
 127 118 0 0 0
SMALL
GASTEIGER

@<TRIPOS>ATOM
      1  N         26.4490    1.3770   15.8900 N.3    61  SER61      -0.1217
      2  CA        27.7920    1.8510   16.2440 C.3    61  SER61       0.1889
      3  C         28.6370    0.9280   17.1180 C.2    61  SER61       0.2288
      4  O         29.8280    1.1710   17.2610 O.2    61  SER61      -0.2866
      5  CB        27.7100    3.2310   16.9150 C.3    61  SER61       0.2089
      6  OG        27.2330    4.1780   15.9680 O.3    61  SER61      -0.2183
      7  N         28.9280   14.0500   12.2960 N.3   116  LEU116     -0.1231
      8  CA        28.3330   12.8320   12.8000 C.3   116  LEU116      0.1693
      9  C         28.0340   11.8540   11.6710 C.2   116  LEU116      0.2591
     10  O         28.3540   10.6730   11.7660 O.2   116  LEU116     -0.2718
     11  CB        27.0710   13.1670   13.6030 C.3   116  LEU116      0.0284
     12  CG        26.2720   11.9870   14.1480 C.3   116  LEU116      0.0019
     13  CD1       27.1640   11.0950   15.0060 C.3   116  LEU116      0.0001
     14  CD2       25.0860   12.5300   14.9530 C.3   116  LEU116      0.0001
     15  N         27.4370   12.3590   10.5920 N.am  117  GLN117     -0.1979
     16  CA        27.0140   11.5330    9.4710 C.3   117  GLN117      0.1601
     17  C         27.7070   11.9910    8.2100 C.2   117  GLN117      0.2287
     18  O         27.8610   13.1980    7.9820 O.2   117  GLN117     -0.2864
     19  CB        25.5190   11.7260    9.2100 C.3   117  GLN117      0.0394
     20  CG        24.5770   11.1060   10.2010 C.3   117  GLN117      0.0908
     21  CD        23.1370   11.5630    9.9690 C.2   117  GLN117      0.2608
     22  OE1       22.5360   11.2450    8.9340 O.2   117  GLN117     -0.2717
     23  NE2       22.5840   12.3360   10.9120 N.am  117  GLN117     -0.0878
     24  N         32.2160   12.8720   18.2870 N.3   147  TYR147     -0.1241
     25  CA        31.8080   11.5520   17.8150 C.3   147  TYR147      0.1605
     26  C         31.2530   11.6540   16.3960 C.2   147  TYR147      0.2264
     27  O         30.3650   12.4520   16.1230 O.2   147  TYR147     -0.2867
     28  CB        30.7680   10.9780   18.7690 C.3   147  TYR147      0.0534
     29  CG        30.3680    9.5470   18.4900 C.ar  147  TYR147     -0.0201
     30  CD1       29.3230    9.2440   17.6350 C.ar  147  TYR147     -0.0009
     31  CD2       31.0610    8.4910   19.0710 C.ar  147  TYR147     -0.0009
     32  CE1       28.9650    7.9150   17.3790 C.ar  147  TYR147      0.0417
     33  CE2       30.7160    7.1710   18.8190 C.ar  147  TYR147      0.0417
     34  CZ        29.6650    6.8930   17.9860 C.ar  147  TYR147      0.1957
     35  OH        29.3210    5.5940   17.7770 O.3   147  TYR147     -0.2866
     36  N         30.5810    9.2430   12.6150 N.3   149  ASN149     -0.1240
     37  CA        30.6610    8.1350   11.6640 C.3   149  ASN149      0.1653
     38  C         31.6180    8.4550   10.4920 C.2   149  ASN149      0.2266
     39  O         32.2790    7.5700    9.9840 O.2   149  ASN149     -0.2867
     40  CB        29.2630    7.7760   11.1150 C.3   149  ASN149      0.1155
     41  CG        28.3580    7.1470   12.1610 C.2   149  ASN149      0.2627
     42  OD1       28.8250    6.6770   13.2080 O.2   149  ASN149     -0.2716
     43  ND2       27.0600    7.0800   11.8620 N.am  149  ASN149     -0.0877
     44  N         18.4360   -1.3180    8.5980 N.3   208  VAL208     -0.1231
     45  CA        19.3790   -0.2610    8.2540 C.3   208  VAL208      0.1692
     46  C         19.4960   -0.0920    6.7400 C.2   208  VAL208      0.2592
     47  O         19.5540   -1.0750    6.0010 O.2   208  VAL208     -0.2718
     48  CB        20.7780   -0.5230    8.9150 C.3   208  VAL208      0.0266
     49  CG1       21.4370   -1.7860    8.3720 C.3   208  VAL208      0.0020
     50  CG2       21.6810    0.7030    8.7790 C.3   208  VAL208      0.0020
     51  N         19.5510    1.1650    6.2990 N.am  209  SER209     -0.1952
     52  CA        19.7100    1.4740    4.8700 C.3   209  SER209      0.1924
     53  C         21.1870    1.5790    4.4840 C.2   209  SER209      0.2314
     54  O         22.0060    1.9950    5.3020 O.2   209  SER209     -0.2863
     55  CB        19.0100    2.7900    4.5430 C.3   209  SER209      0.2116
     56  OG        17.6070    2.6910    4.8080 O.3   209  SER209     -0.2180
     57  N         28.8730    1.4420   11.1420 N.3   218  TYR218     -0.1241
     58  CA        27.6450    0.9640   11.7730 C.3   218  TYR218      0.1605
     59  C         26.9960   -0.2650   11.1370 C.2   218  TYR218      0.2264
     60  O         25.8150   -0.5340   11.4010 O.2   218  TYR218     -0.2867
     61  CB        26.6310    2.1110   11.8240 C.3   218  TYR218      0.0534
     62  CG        26.2930    2.7560   10.4890 C.ar  218  TYR218     -0.0201
     63  CD1       25.3360    2.2010    9.6320 C.ar  218  TYR218     -0.0009
     64  CD2       26.9040    3.9460   10.0970 C.ar  218  TYR218     -0.0009
     65  CE1       25.0060    2.8010    8.4250 C.ar  218  TYR218      0.0417
     66  CE2       26.5820    4.5520    8.8890 C.ar  218  TYR218      0.0417
     67  CZ        25.6230    3.9640    8.0530 C.ar  218  TYR218      0.1957
     68  OH        25.3080    4.5490    6.8490 O.3   218  TYR218     -0.2866
     69  N         23.0880   10.8820   24.6560 N.3   286  ASN286     -0.1240
     70  CA        23.6180   11.5280   23.4600 C.3   286  ASN286      0.1653
     71  C         23.6370   13.0500   23.4280 C.2   286  ASN286      0.2266
     72  O         24.4770   13.6230   22.7360 O.2   286  ASN286     -0.2867
     73  CB        22.7170   11.1790   22.2680 C.3   286  ASN286      0.1155
     74  CG        22.9630    9.7960   21.7250 C.2   286  ASN286      0.2627
     75  OD1       24.0210    9.2130   21.9490 O.2   286  ASN286     -0.2716
     76  ND2       21.9930    9.2700   20.9980 N.am  286  ASN286     -0.0877
     77  N         27.3940   12.8230   22.0560 N.3   290  LEU290     -0.1245
     78  CA        27.5290   13.4040   20.7050 C.3   290  LEU290      0.1561
     79  C         28.0560   14.8670   20.6910 C.2   290  LEU290      0.2260
     80  O         28.2080   15.4740   19.6330 O.2   290  LEU290     -0.2867
     81  CB        26.1930   13.3070   19.9730 C.3   290  LEU290      0.0270
     82  CG        25.6340   11.8930   19.7460 C.3   290  LEU290      0.0019
     83  CD1       24.3640   11.9600   18.9220 C.3   290  LEU290      0.0001
     84  CD2       26.6440   10.9600   19.0910 C.3   290  LEU290      0.0001
     85  N         28.0410    1.8780   23.2870 N.3   313  THR313     -0.1203
     86  CA        26.6310    1.8950   22.9100 C.3   313  THR313      0.1994
     87  C         26.5250    1.9570   21.3810 C.2   313  THR313      0.2618
     88  O         27.3990    2.4580   20.7030 O.2   313  THR313     -0.2717
     89  CB        25.9100    3.1450   23.4590 C.3   313  THR313      0.1784
     90  OG1       26.5880    4.3220   22.9980 O.3   313  THR313     -0.2211
     91  CG2       25.8580    3.1390   24.9950 C.3   313  THR313      0.0376
     92  N         25.4220    1.4880   20.8300 N.am  314  GLY314     -0.1942
     93  CA        25.2430    1.5970   19.3970 C.3   314  GLY314      0.2014
     94  C         23.7930    1.3970   19.0240 C.2   314  GLY314      0.2639
     95  O         23.0750    0.6720   19.6970 O.2   314  GLY314     -0.2714
     96  N         23.3840    2.0350   17.9380 N.am  315  ALA315     -0.1963
     97  CA        22.0050    1.9720   17.4890 C.3   315  ALA315      0.1728
     98  C         21.8920    2.0890   15.9960 C.2   315  ALA315      0.2617
     99  O         22.7680    2.6230   15.3140 O.2   315  ALA315     -0.2715
    100  CB        21.1710    3.0960   18.1470 C.3   315  ALA315      0.0334
    101  N         20.7800    1.5740   15.5010 N.am  316  THR316     -0.1937
    102  CA        20.2780    1.9450   14.1900 C.3   316  THR316      0.2028
    103  C         18.8340    2.4420   14.3990 C.2   316  THR316      0.2642
    104  O         18.3270    2.4750   15.5190 O.2   316  THR316     -0.2714
    105  CB        20.3220    0.7670   13.2020 C.3   316  THR316      0.1808
    106  OG1       19.4740   -0.2820   13.6740 O.3   316  THR316     -0.2208
    107  CG2       21.7610    0.2410   13.0230 C.3   316  THR316      0.0379
    108  N         18.1710    2.8030   13.3130 N.am  317  GLY317     -0.1954
    109  CA        16.7810    3.2520   13.3660 C.3   317  GLY317      0.1869
    110  C         15.8850    2.3390   14.1810 C.2   317  GLY317      0.2309
    111  O         15.0620    2.8090   14.9510 O.2   317  GLY317     -0.2863
    112  N         15.3960    0.9260   19.2000 N.3   340  ASN340     -0.1240
    113  CA        16.3640    1.9420   19.6030 C.3   340  ASN340      0.1653
    114  C         15.7690    2.6840   20.7980 C.2   340  ASN340      0.2266
    115  O         14.9520    3.5980   20.6240 O.2   340  ASN340     -0.2867
    116  CB        16.6330    2.9020   18.4440 C.3   340  ASN340      0.1155
    117  CG        17.6830    3.9580   18.7750 C.2   340  ASN340      0.2627
    118  OD1       18.1990    4.0270   19.9030 O.2   340  ASN340     -0.2716
    119  ND2       18.0060    4.7880   17.7930 N.am  340  ASN340     -0.0877
    120  N         20.0490    5.3990   25.4520 N.3   343  ASN343     -0.1240
    121  CA        21.3200    4.9330   26.0060 C.3   343  ASN343      0.1653
    122  C         21.3820    4.7620   27.5260 C.2   343  ASN343      0.2266
    123  O         21.8340    3.7260   28.0220 O.2   343  ASN343     -0.2867
    124  CB        22.4810    5.8410   25.5660 C.3   343  ASN343      0.1155
    125  CG        22.8910    5.6290   24.1100 C.2   343  ASN343      0.2627
    126  OD1       22.6580    4.5680   23.5400 O.2   343  ASN343     -0.2716
    127  ND2       23.5240    6.6570   23.5050 N.am  343  ASN343     -0.0877
@<TRIPOS>BOND
     1    53    52    1
     2    53    54    2
     3    55    56    1
     4    55    52    1
     5    52    51    1
     6    47    46    2
     7    51    46   am
     8    46    45    1
     9    68    67    1
    10    18    17    2
    11    67    65   ar
    12    67    66   ar
    13    17    16    1
    14    45    44    1
    15    45    48    1
    16    49    48    1
    17    65    63   ar
    18    50    48    1
    19    66    64   ar
    20    22    21    2
    21    19    16    1
    22    19    20    1
    23    16    15    1
    24    63    62   ar
    25    21    20    1
    26    21    23   am
    27    39    38    2
    28    64    62   ar
    29    62    61    1
    30    38    37    1
    31    15     9   am
    32    40    37    1
    33    40    41    1
    34    59    60    2
    35    59    58    1
    36    57    58    1
    37    37    36    1
    38     9    10    2
    39     9     8    1
    40    58    61    1
    41    43    41   am
    42    41    42    2
    43     7     8    1
    44     8    11    1
    45   107   105    1
    46   105   106    1
    47   105   102    1
    48   108   109    1
    49   108   103   am
    50   109   110    1
    51    11    12    1
    52    12    14    1
    53    12    13    1
    54   110   111    2
    55   102   103    1
    56   102   101    1
    57   103   104    2
    58    99    98    2
    59   101    98   am
    60     1     2    1
    61     6     5    1
    62    98    97    1
    63    27    26    2
    64     2     5    1
    65     2     3    1
    66    26    25    1
    67     3     4    2
    68    32    30   ar
    69    32    34   ar
    70    97    96    1
    71    97   100    1
    72    30    29   ar
    73    35    34    1
    74   119   117   am
    75    25    24    1
    76    25    28    1
    77    96    94   am
    78    34    33   ar
    79   116   117    1
    80   116   113    1
    81    29    28    1
    82    29    31   ar
    83   117   118    2
    84    33    31   ar
    85    83    82    1
    86    94    93    1
    87    94    95    2
    88    84    82    1
    89   112   113    1
    90    93    92    1
    91   113   114    1
    92    80    79    2
    93    82    81    1
    94    81    78    1
    95   115   114    2
    96    79    78    1
    97    88    87    2
    98    78    77    1
    99    92    87   am
   100    76    74   am
   101    87    86    1
   102    74    75    2
   103    74    73    1
   104    73    70    1
   105    72    71    2
   106    86    85    1
   107    86    89    1
   108    90    89    1
   109    71    70    1
   110    89    91    1
   111    70    69    1
   112   127   125   am
   113   126   125    2
   114   125   124    1
   115   120   121    1
   116   124   121    1
   117   121   122    1
   118   122   123    2
