@<TRIPOS>MOLECULE
tmp/2r9xB00.pdb
 146 138 0 0 0
SMALL
GASTEIGER

@<TRIPOS>ATOM
      1  N         76.7000    1.4590   29.3770 N.3    61  SER61      -0.1217
      2  CA        75.4000    1.9380   28.9150 C.3    61  SER61       0.1889
      3  C         74.4990    0.9120   28.2570 C.2    61  SER61       0.2288
      4  O         73.3090    1.1910   28.0900 O.2    61  SER61      -0.2866
      5  CB        75.5940    3.1020   27.9560 C.3    61  SER61       0.2089
      6  OG        76.1560    4.1860   28.6280 O.3    61  SER61      -0.2183
      7  N         74.7890   14.7380   30.4340 N.3   116  LEU116     -0.1231
      8  CA        75.3020   13.4040   30.1570 C.3   116  LEU116      0.1693
      9  C         75.5990   12.6140   31.4350 C.2   116  LEU116      0.2591
     10  O         75.2680   11.4390   31.5150 O.2   116  LEU116     -0.2718
     11  CB        76.5680   13.4770   29.2960 C.3   116  LEU116      0.0284
     12  CG        77.2900   12.1560   28.9670 C.3   116  LEU116      0.0019
     13  CD1       76.3380   11.1340   28.3050 C.3   116  LEU116      0.0001
     14  CD2       78.5290   12.3940   28.0880 C.3   116  LEU116      0.0001
     15  N         76.2550   13.2730   32.3960 N.am  117  GLN117     -0.1979
     16  CA        76.6220   12.6770   33.6730 C.3   117  GLN117      0.1601
     17  C         76.0030   13.4830   34.8110 C.2   117  GLN117      0.2287
     18  O         75.9520   14.6980   34.7630 O.2   117  GLN117     -0.2864
     19  CB        78.1420   12.6680   33.8510 C.3   117  GLN117      0.0394
     20  CG        78.8760   11.4430   33.2720 C.3   117  GLN117      0.0908
     21  CD        78.6740   10.1440   34.0730 C.2   117  GLN117      0.2608
     22  OE1       77.6080    9.5050   34.0010 O.2   117  GLN117     -0.2717
     23  NE2       79.7100    9.7410   34.8390 N.am  117  GLN117     -0.0878
     24  N         71.6020   12.5330   24.6960 N.3   147  TYR147     -0.1241
     25  CA        71.9110   11.3230   25.4360 C.3   147  TYR147      0.1605
     26  C         72.4360   11.6940   26.8250 C.2   147  TYR147      0.2264
     27  O         73.3610   12.4880   26.9330 O.2   147  TYR147     -0.2867
     28  CB        72.9480   10.4980   24.6800 C.3   147  TYR147      0.0534
     29  CG        73.1800    9.1160   25.2100 C.ar  147  TYR147     -0.0201
     30  CD1       74.1680    8.8620   26.1400 C.ar  147  TYR147     -0.0009
     31  CD2       72.4100    8.0450   24.7730 C.ar  147  TYR147     -0.0009
     32  CE1       74.3850    7.5820   26.6300 C.ar  147  TYR147      0.0417
     33  CE2       72.6290    6.7600   25.2430 C.ar  147  TYR147      0.0417
     34  CZ        73.6300    6.5390   26.1700 C.ar  147  TYR147      0.1957
     35  OH        73.8710    5.3000   26.6500 O.3   147  TYR147     -0.2866
     36  N         72.8360   10.1590   31.0700 N.3   149  ASN149     -0.1240
     37  CA        72.6990    9.2230   32.1890 C.3   149  ASN149      0.1653
     38  C         71.8050    9.7710   33.2760 C.2   149  ASN149      0.2266
     39  O         71.1100    9.0020   33.9610 O.2   149  ASN149     -0.2867
     40  CB        74.0590    8.9240   32.8010 C.3   149  ASN149      0.1155
     41  CG        74.9010    8.0630   31.9210 C.2   149  ASN149      0.2627
     42  OD1       74.3870    7.3990   31.0120 O.2   149  ASN149     -0.2716
     43  ND2       76.2170    8.0410   32.1940 N.am  149  ASN149     -0.0877
     44  N         87.8770   -0.9290   37.4940 N.3   207  HIS207     -0.1226
     45  CA        86.4630   -1.2650   37.5590 C.3   207  HIS207      0.1752
     46  C         85.6910    0.0390   37.6460 C.2   207  HIS207      0.2596
     47  O         86.2410    1.0760   38.0410 O.2   207  HIS207     -0.2718
     48  CB        86.1440   -2.1530   38.7620 C.3   207  HIS207      0.0759
     49  CG        86.3680   -3.6140   38.5200 C.ar  207  HIS207      0.0818
     50  ND1       86.7230   -4.4880   39.5260 N.ar  207  HIS207     -0.2268
     51  CD2       86.2690   -4.3600   37.3940 C.ar  207  HIS207      0.1154
     52  CE1       86.8230   -5.7090   39.0300 C.ar  207  HIS207      0.1986
     53  NE2       86.5530   -5.6600   37.7370 N.ar  207  HIS207     -0.2212
     54  N         84.4200   -0.0030   37.2650 N.am  208  VAL208     -0.1966
     55  CA        83.5960    1.2040   37.2670 C.3   208  VAL208      0.1727
     56  C         83.5020    1.6980   38.7150 C.2   208  VAL208      0.2616
     57  O         83.3850    0.8810   39.6250 O.2   208  VAL208     -0.2715
     58  CB        82.1710    0.9150   36.7230 C.3   208  VAL208      0.0290
     59  CG1       81.4800   -0.1230   37.5910 C.3   208  VAL208      0.0023
     60  CG2       81.3510    2.1960   36.6400 C.3   208  VAL208      0.0023
     61  N         83.5460    3.0090   38.9270 N.am  209  SER209     -0.1950
     62  CA        83.4120    3.5400   40.2870 C.3   209  SER209      0.1924
     63  C         81.9460    3.8520   40.6400 C.2   209  SER209      0.2314
     64  O         81.0960    4.0400   39.7620 O.2   209  SER209     -0.2863
     65  CB        84.3150    4.7560   40.5100 C.3   209  SER209      0.2116
     66  OG        85.6270    4.3450   40.8890 O.3   209  SER209     -0.2180
     67  N         74.2240    2.6960   33.9030 N.3   218  TYR218     -0.1241
     68  CA        75.4320    2.0150   33.4050 C.3   218  TYR218      0.1605
     69  C         76.0280    0.9010   34.2860 C.2   218  TYR218      0.2264
     70  O         77.1820    0.5550   34.1100 O.2   218  TYR218     -0.2867
     71  CB        76.5350    3.0610   33.1070 C.3   218  TYR218      0.0534
     72  CG        76.9100    3.9480   34.2940 C.ar  218  TYR218     -0.0201
     73  CD1       77.8160    3.5230   35.2710 C.ar  218  TYR218     -0.0009
     74  CD2       76.3700    5.2160   34.4290 C.ar  218  TYR218     -0.0009
     75  CE1       78.1730    4.3590   36.3400 C.ar  218  TYR218      0.0417
     76  CE2       76.6930    6.0340   35.4990 C.ar  218  TYR218      0.0417
     77  CZ        77.6020    5.6170   36.4410 C.ar  218  TYR218      0.1957
     78  OH        77.8890    6.4810   37.4950 O.3   218  TYR218     -0.2866
     79  N         80.7850    9.1130   19.1020 N.3   286  ASN286     -0.1240
     80  CA        80.3210   10.0190   20.1560 C.3   286  ASN286      0.1653
     81  C         80.1180   11.4640   19.7360 C.2   286  ASN286      0.2266
     82  O         79.3130   12.1610   20.3360 O.2   286  ASN286     -0.2867
     83  CB        81.2300    9.9290   21.3730 C.3   286  ASN286      0.1155
     84  CG        81.0280    8.6600   22.1410 C.2   286  ASN286      0.2627
     85  OD1       79.9660    8.0330   22.0670 O.2   286  ASN286     -0.2716
     86  ND2       82.0450    8.2480   22.8670 N.am  286  ASN286     -0.0877
     87  N         76.5230   11.5600   21.1560 N.3   290  LEU290     -0.1245
     88  CA        76.3360   12.3780   22.3560 C.3   290  LEU290      0.1561
     89  C         75.9100   13.8220   22.0810 C.2   290  LEU290      0.2260
     90  O         75.8010   14.6390   23.0070 O.2   290  LEU290     -0.2867
     91  CB        77.6010   12.3400   23.2290 C.3   290  LEU290      0.0270
     92  CG        78.0820   10.9930   23.7560 C.3   290  LEU290      0.0019
     93  CD1       79.4010   11.1330   24.5050 C.3   290  LEU290      0.0001
     94  CD2       77.0380   10.3040   24.6250 C.3   290  LEU290      0.0001
     95  N         72.4730   -1.1250   20.7730 N.3   312  LYS312     -0.1231
     96  CA        72.9600   -0.2810   21.8370 C.3   312  LYS312      0.1693
     97  C         74.4700   -0.4810   22.0580 C.2   312  LYS312      0.2593
     98  O         74.9310   -1.5990   22.2650 O.2   312  LYS312     -0.2718
     99  CB        72.2180   -0.5530   23.1560 C.3   312  LYS312      0.0285
    100  CG        72.5420    0.4400   24.2700 C.3   312  LYS312      0.0035
    101  CD        71.9670    1.8280   23.9930 C.3   312  LYS312      0.0206
    102  CE        72.3790    2.8830   25.0140 C.3   312  LYS312      0.1093
    103  NZ        73.7360    3.5000   24.7170 N.3   312  LYS312     -0.1314
    104  N         75.1950    0.6370   22.0340 N.am  313  THR313     -0.1939
    105  CA        76.5960    0.7150   22.4470 C.3   313  THR313      0.2028
    106  C         76.6460    1.0410   23.9470 C.2   313  THR313      0.2643
    107  O         75.7340    1.6620   24.4950 O.2   313  THR313     -0.2714
    108  CB        77.3820    1.8520   21.6810 C.3   313  THR313      0.1808
    109  OG1       76.6880    3.1010   21.8060 O.3   313  THR313     -0.2208
    110  CG2       77.4920    1.5510   20.2020 C.3   313  THR313      0.0379
    111  N         77.7330    0.6620   24.5850 N.am  314  GLY314     -0.1939
    112  CA        77.9450    1.0160   25.9760 C.3   314  GLY314      0.2014
    113  C         79.3730    0.7530   26.4340 C.2   314  GLY314      0.2639
    114  O         79.9870   -0.2490   26.0650 O.2   314  GLY314     -0.2714
    115  N         79.8660    1.6580   27.2690 N.am  315  ALA315     -0.1963
    116  CA        81.2360    1.6110   27.7630 C.3   315  ALA315      0.1728
    117  C         81.3170    2.0760   29.2010 C.2   315  ALA315      0.2617
    118  O         80.4550    2.8110   29.6920 O.2   315  ALA315     -0.2715
    119  CB        82.1540    2.4890   26.8920 C.3   315  ALA315      0.0334
    120  N         82.3600    1.6170   29.8670 N.am  316  THR316     -0.1937
    121  CA        82.8330    2.2480   31.0950 C.3   316  THR316      0.2028
    122  C         84.2990    2.6260   30.8360 C.2   316  THR316      0.2642
    123  O         84.8120    2.4470   29.7240 O.2   316  THR316     -0.2714
    124  CB        82.7430    1.3100   32.2960 C.3   316  THR316      0.1808
    125  OG1       83.4910    0.1190   32.0230 O.3   316  THR316     -0.2208
    126  CG2       81.3040    0.9490   32.6240 C.3   316  THR316      0.0379
    127  N         84.9840    3.1400   31.8440 N.am  317  GLY317     -0.1954
    128  CA        86.3860    3.4790   31.6600 C.3   317  GLY317      0.1869
    129  C         87.2580    2.3540   31.1490 C.2   317  GLY317      0.2309
    130  O         88.2180    2.5950   30.4140 O.2   317  GLY317     -0.2863
    131  N         87.7320   -0.1510   26.5000 N.3   340  ASN340     -0.1240
    132  CA        86.8880    0.8360   25.8330 C.3   340  ASN340      0.1653
    133  C         87.5740    1.3230   24.5500 C.2   340  ASN340      0.2266
    134  O         88.5250    2.1280   24.6000 O.2   340  ASN340     -0.2867
    135  CB        86.5950    2.0000   26.7890 C.3   340  ASN340      0.1155
    136  CG        85.6860    3.0790   26.1930 C.2   340  ASN340      0.2627
    137  OD1       85.2140    2.9840   25.0650 O.2   340  ASN340     -0.2716
    138  ND2       85.4340    4.1050   26.9660 N.am  340  ASN340     -0.0877
    139  N         83.3390    3.2720   19.4230 N.3   343  ASN343     -0.1240
    140  CA        82.0450    2.7610   18.9760 C.3   343  ASN343      0.1653
    141  C         82.0280    2.3000   17.5120 C.2   343  ASN343      0.2266
    142  O         81.5690    1.1910   17.2260 O.2   343  ASN343     -0.2867
    143  CB        80.9430    3.8210   19.1800 C.3   343  ASN343      0.1155
    144  CG        80.5840    4.0390   20.6430 C.2   343  ASN343      0.2627
    145  OD1       80.6670    3.1180   21.4720 O.2   343  ASN343     -0.2716
    146  ND2       80.1400    5.2570   20.9600 N.am  343  ASN343     -0.0877
@<TRIPOS>BOND
     1   142   141    2
     2   141   140    1
     3   140   143    1
     4   140   139    1
     5    79    80    1
     6   143   144    1
     7    81    80    1
     8    81    82    2
     9    80    83    1
    10   110   108    1
    11   144   146   am
    12   144   145    2
    13    95    96    1
    14    87    88    1
    15    83    84    1
    16   108   109    1
    17   108   105    1
    18    96    97    1
    19    96    99    1
    20   104    97   am
    21   104   105    1
    22    97    98    2
    23    85    84    2
    24    89    88    1
    25    89    90    2
    26    84    86   am
    27    88    91    1
    28   105   106    1
    29    99   100    1
    30    91    92    1
    31    92    93    1
    32    92    94    1
    33   106   107    2
    34   106   111   am
    35   101   100    1
    36   101   102    1
    37   133   134    2
    38   133   132    1
    39   111   112    1
    40    28    29    1
    41    28    25    1
    42    24    25    1
    43   103   102    1
    44    31    29   ar
    45    31    33   ar
    46   137   136    2
    47    29    30   ar
    48    33    34   ar
    49    25    26    1
    50   132   131    1
    51   132   135    1
    52   112   113    1
    53   114   113    2
    54    30    32   ar
    55    34    32   ar
    56    34    35    1
    57   136   135    1
    58   136   138   am
    59   113   115   am
    60    26    27    2
    61   119   116    1
    62   115   116    1
    63   116   117    1
    64     5     6    1
    65     5     2    1
    66    14    12    1
    67     4     3    2
    68     3     2    1
    69    13    12    1
    70     2     1    1
    71    12    11    1
    72   117   118    2
    73   117   120   am
    74    11     8    1
    75   123   122    2
    76   120   121    1
    77     8     7    1
    78     8     9    1
    79   130   129    2
    80   122   121    1
    81   122   127   am
    82    42    41    2
    83    36    37    1
    84   121   124    1
    85   129   128    1
    86     9    10    2
    87     9    15   am
    88   128   127    1
    89    41    43   am
    90    41    40    1
    91   125   124    1
    92    37    40    1
    93    37    38    1
    94   124   126    1
    95    15    16    1
    96    71    68    1
    97    71    72    1
    98    20    19    1
    99    20    21    1
   100    38    39    2
   101    68    67    1
   102    68    69    1
   103    16    19    1
   104    16    17    1
   105    22    21    2
   106    21    23   am
   107    70    69    2
   108    72    74   ar
   109    72    73   ar
   110    74    76   ar
   111    18    17    2
   112    73    75   ar
   113    76    77   ar
   114    75    77   ar
   115    77    78    1
   116    60    58    1
   117    58    55    1
   118    58    59    1
   119    54    55    1
   120    54    46   am
   121    55    56    1
   122    51    53   ar
   123    51    49   ar
   124    44    45    1
   125    45    46    1
   126    45    48    1
   127    46    47    2
   128    53    52   ar
   129    49    48    1
   130    49    50   ar
   131    56    61   am
   132    56    57    2
   133    61    62    1
   134    52    50   ar
   135    64    63    2
   136    62    65    1
   137    62    63    1
   138    65    66    1
