@<TRIPOS>MOLECULE
tmp/2ra0A00.pdb
 226 223 0 0 0
SMALL
GASTEIGER

@<TRIPOS>ATOM
      1  N         51.9970   44.7590   14.9740 N.3    42  HIS42      -0.1241
      2  CA        51.2050   45.9790   14.8550 C.3    42  HIS42       0.1621
      3  C         51.9090   47.2680   15.2840 C.2    42  HIS42       0.2264
      4  O         51.3430   48.3550   15.1640 O.2    42  HIS42      -0.2867
      5  CB        49.8740   45.8400   15.6120 C.3    42  HIS42       0.0745
      6  CG        49.9380   46.2380   17.0560 C.ar   42  HIS42       0.0817
      7  ND1       50.2260   45.3460   18.0660 N.ar   42  HIS42      -0.2268
      8  CD2       49.7120   47.4300   17.6590 C.ar   42  HIS42       0.1154
      9  CE1       50.1700   45.9700   19.2290 C.ar   42  HIS42       0.1986
     10  NE2       49.8600   47.2360   19.0110 N.ar   42  HIS42      -0.2212
     11  N         45.6950   43.3950   10.6230 N.3    82  LYS82      -0.1231
     12  CA        45.1900   44.4310   11.5150 C.3    82  LYS82       0.1693
     13  C         43.7580   44.1940   11.9760 C.2    82  LYS82       0.2592
     14  O         43.3360   44.7390   12.9950 O.2    82  LYS82      -0.2718
     15  CB        45.2790   45.8030   10.8420 C.3    82  LYS82       0.0285
     16  CG        44.5690   45.9020    9.4970 C.3    82  LYS82       0.0035
     17  CD        45.3390   45.1740    8.3940 C.3    82  LYS82       0.0206
     18  CE        44.5770   45.1780    7.0700 C.3    82  LYS82       0.1093
     19  NZ        43.2700   44.4580    7.1570 N.3    82  LYS82      -0.1314
     20  N         43.0080   43.3840   11.2360 N.am   83  GLU83      -0.1966
     21  CA        41.6250   43.1130   11.6100 C.3    83  GLU83       0.1733
     22  C         41.4960   42.2800   12.8800 C.2    83  GLU83       0.2617
     23  O         40.7310   42.6320   13.7790 O.2    83  GLU83      -0.2715
     24  CB        40.8740   42.4200   10.4640 C.3    83  GLU83       0.0429
     25  CG        40.4750   43.3560    9.3310 C.3    83  GLU83       0.1163
     26  CD        39.7680   44.6150    9.8310 C.2    83  GLU83       0.3649
     27  OE1       38.7530   44.4900   10.5580 O.co2  83  GLU83      -0.2457
     28  OE2       40.2320   45.7290    9.4910 O.co2  83  GLU83      -0.2457
     29  N         42.2400   41.1800   12.9530 N.am   84  THR84      -0.1937
     30  CA        42.1850   40.3060   14.1210 C.3    84  THR84       0.2028
     31  C         43.4280   40.4180   14.9950 C.2    84  THR84       0.2642
     32  O         43.4290   39.9550   16.1330 O.2    84  THR84      -0.2714
     33  CB        42.0160   38.8250   13.7130 C.3    84  THR84       0.1808
     34  OG1       43.0910   38.4430   12.8460 O.3    84  THR84      -0.2208
     35  CG2       40.6940   38.6120   12.9950 C.3    84  THR84       0.0379
     36  N         44.4760   41.0430   14.4680 N.am   85  TYR85      -0.1973
     37  CA        45.7310   41.1900   15.2030 C.3    85  TYR85       0.1639
     38  C         46.3860   39.8290   15.4200 C.2    85  TYR85       0.2290
     39  O         47.2880   39.6810   16.2490 O.2    85  TYR85      -0.2864
     40  CB        45.4920   41.8750   16.5500 C.3    85  TYR85       0.0560
     41  CG        45.6930   43.3710   16.5190 C.ar   85  TYR85      -0.0198
     42  CD1       45.0800   44.1580   15.5460 C.ar   85  TYR85      -0.0009
     43  CD2       46.4940   44.0030   17.4700 C.ar   85  TYR85      -0.0009
     44  CE1       45.2630   45.5420   15.5180 C.ar   85  TYR85       0.0417
     45  CE2       46.6800   45.3840   17.4560 C.ar   85  TYR85       0.0417
     46  CZ        46.0650   46.1480   16.4770 C.ar   85  TYR85       0.1957
     47  OH        46.2550   47.5110   16.4520 O.3    85  TYR85      -0.2866
     48  N         50.7420   53.5110   29.2720 N.3   132  ARG132     -0.1245
     49  CA        49.8050   54.3050   30.0590 C.3   132  ARG132      0.1563
     50  C         49.4870   53.6770   31.4100 C.2   132  ARG132      0.2260
     51  O         49.3440   52.4590   31.5240 O.2   132  ARG132     -0.2867
     52  CB        48.5050   54.5140   29.2740 C.3   132  ARG132      0.0307
     53  CG        48.7010   55.0850   27.8680 C.3   132  ARG132      0.0489
     54  CD        47.3790   55.5440   27.2590 C.3   132  ARG132      0.2205
     55  NE        47.5080   55.8640   25.8370 N.pl3 132  ARG132     -0.0865
     56  CZ        46.5820   56.4980   25.1230 C.cat 132  ARG132      0.5346
     57  NH1       45.4520   56.8910   25.6940 N.pl3 132  ARG132      0.1354
     58  NH2       46.7810   56.7320   23.8320 N.pl3 132  ARG132      0.1354
     59  N         43.6150   53.9280   31.4420 N.3   135  GLU135     -0.1231
     60  CA        43.1110   53.6470   30.1050 C.3   135  GLU135      0.1699
     61  C         43.3090   54.7880   29.1100 C.2   135  GLU135      0.2592
     62  O         43.8130   54.5700   28.0100 O.2   135  GLU135     -0.2718
     63  CB        41.6300   53.2670   30.1380 C.3   135  GLU135      0.0402
     64  CG        41.1160   52.8340   28.7740 C.3   135  GLU135      0.1161
     65  CD        39.6830   52.3600   28.8040 C.2   135  GLU135      0.3649
     66  OE1       39.3640   51.4690   29.6250 O.co2 135  GLU135     -0.2457
     67  OE2       38.8760   52.8740   28.0000 O.co2 135  GLU135     -0.2457
     68  N         42.9180   56.0020   29.4860 N.am  136  LYS136     -0.1980
     69  CA        43.0570   57.1350   28.5730 C.3   136  LYS136      0.1596
     70  C         44.0620   58.1860   29.0340 C.2   136  LYS136      0.2287
     71  O         44.0950   59.3020   28.5080 O.2   136  LYS136     -0.2864
     72  CB        41.6870   57.7740   28.3390 C.3   136  LYS136      0.0298
     73  CG        40.6830   56.8150   27.7090 C.3   136  LYS136      0.0038
     74  CD        39.3000   57.4290   27.5940 C.3   136  LYS136      0.0206
     75  CE        38.3160   56.4420   26.9920 C.3   136  LYS136      0.1093
     76  NZ        36.9580   57.0400   26.8490 N.3   136  LYS136     -0.1314
     77  N         36.0230   40.1580   20.7530 N.3   162  PHE162     -0.1227
     78  CA        36.7700   39.7790   19.5550 C.3   162  PHE162      0.1736
     79  C         37.3170   38.3560   19.6280 C.2   162  PHE162      0.2595
     80  O         37.4970   37.8010   20.7090 O.2   162  PHE162     -0.2718
     81  CB        37.9100   40.7690   19.3380 C.3   162  PHE162      0.0547
     82  CG        37.4660   42.2050   19.3520 C.ar  162  PHE162     -0.0202
     83  CD1       36.7410   42.7340   18.2880 C.ar  162  PHE162     -0.0042
     84  CD2       37.7520   43.0230   20.4410 C.ar  162  PHE162     -0.0042
     85  CE1       36.3060   44.0610   18.3110 C.ar  162  PHE162     -0.0003
     86  CE2       37.3230   44.3500   20.4730 C.ar  162  PHE162     -0.0003
     87  CZ        36.5970   44.8690   19.4030 C.ar  162  PHE162     -0.0000
     88  N         37.5910   37.7770   18.4640 N.am  163  ILE163     -0.1980
     89  CA        38.0860   36.4080   18.3740 C.3   163  ILE163      0.1595
     90  C         39.4980   36.2110   18.9250 C.2   163  ILE163      0.2287
     91  O         40.4190   36.9700   18.6110 O.2   163  ILE163     -0.2864
     92  CB        38.0410   35.9070   16.9100 C.3   163  ILE163      0.0276
     93  CG1       38.5880   34.4790   16.8300 C.3   163  ILE163      0.0022
     94  CG2       38.8430   36.8420   16.0150 C.3   163  ILE163      0.0022
     95  CD1       38.5470   33.8780   15.4360 C.3   163  ILE163      0.0001
     96  N         46.4910   45.9790   34.6390 N.3   179  ASP179     -0.1225
     97  CA        46.5260   45.4950   33.2680 C.3   179  ASP179      0.1805
     98  C         47.6200   46.2330   32.4960 C.2   179  ASP179      0.2598
     99  O         48.2340   47.1610   33.0120 O.2   179  ASP179     -0.2718
    100  CB        45.1450   45.7720   32.6530 C.3   179  ASP179      0.1424
    101  CG        44.9080   45.0600   31.3310 C.2   179  ASP179      0.3668
    102  OD1       45.7750   44.2990   30.8610 O.co2 179  ASP179     -0.2456
    103  OD2       43.8180   45.2730   30.7570 O.co2 179  ASP179     -0.2456
    104  N         47.8750   45.7910   31.2720 N.am  180  ALA180     -0.1966
    105  CA        48.8480   46.4440   30.4050 C.3   180  ALA180      0.1728
    106  C         48.0080   47.4790   29.6570 C.2   180  ALA180      0.2616
    107  O         46.7820   47.4040   29.6580 O.2   180  ALA180     -0.2715
    108  CB        49.4590   45.4410   29.4260 C.3   180  ALA180      0.0334
    109  N         48.6510   48.4400   29.0110 N.am  181  CYS181     -0.1954
    110  CA        47.8940   49.4700   28.3230 C.3   181  CYS181      0.1843
    111  C         48.6380   49.9630   27.0990 C.2   181  CYS181      0.2625
    112  O         49.7700   49.5450   26.8440 O.2   181  CYS181     -0.2714
    113  CB        47.6320   50.6260   29.2960 C.3   181  CYS181      0.0997
    114  SG        46.4730   51.8950   28.7370 S.3   181  CYS181     -0.0797
    115  N         47.9970   50.8430   26.3370 N.am  182  GLN182     -0.1977
    116  CA        48.6130   51.3970   25.1340 C.3   182  GLN182      0.1601
    117  C         50.0090   51.8890   25.4830 C.2   182  GLN182      0.2287
    118  O         50.1990   52.5840   26.4800 O.2   182  GLN182     -0.2864
    119  CB        47.7800   52.5570   24.5870 C.3   182  GLN182      0.0394
    120  CG        48.3500   53.1320   23.3090 C.3   182  GLN182      0.0908
    121  CD        48.4780   52.0810   22.2230 C.2   182  GLN182      0.2608
    122  OE1       47.4760   51.6050   21.6840 O.2   182  GLN182     -0.2717
    123  NE2       49.7160   51.7030   21.9060 N.am  182  GLN182     -0.0878
    124  N         52.4470   47.6140   24.3130 N.3   185  SER185     -0.1217
    125  CA        52.4420   46.7320   23.1490 C.3   185  SER185      0.1889
    126  C         53.8370   46.3780   22.6410 C.2   185  SER185      0.2288
    127  O         54.7350   47.2170   22.6170 O.2   185  SER185     -0.2866
    128  CB        51.6290   47.3640   22.0150 C.3   185  SER185      0.2089
    129  OG        50.2550   47.4680   22.3640 O.3   185  SER185     -0.2183
    130  N         52.9480   41.6160   24.5120 N.3   203  VAL203     -0.1231
    131  CA        51.8100   42.5070   24.7210 C.3   203  VAL203      0.1692
    132  C         51.1910   42.7830   23.3530 C.2   203  VAL203      0.2593
    133  O         51.8540   43.3340   22.4730 O.2   203  VAL203     -0.2718
    134  CB        52.2620   43.8300   25.3340 C.3   203  VAL203      0.0266
    135  CG1       51.0510   44.6680   25.7100 C.3   203  VAL203      0.0020
    136  CG2       53.1380   43.5610   26.5320 C.3   203  VAL203      0.0020
    137  N         49.9360   42.3920   23.1700 N.am  204  SER204     -0.1938
    138  CA        49.2690   42.5850   21.8850 C.3   204  SER204      0.2055
    139  C         48.1240   43.6000   21.9500 C.2   204  SER204      0.2643
    140  O         48.2460   44.6990   21.4120 O.2   204  SER204     -0.2714
    141  CB        48.7530   41.2420   21.3560 C.3   204  SER204      0.2130
    142  OG        48.3180   41.3570   20.0140 O.3   204  SER204     -0.2179
    143  N         47.0220   43.2480   22.6070 N.am  205  TRP205     -0.1959
    144  CA        45.8890   44.1700   22.7070 C.3   205  TRP205      0.1771
    145  C         44.9600   43.9200   23.8920 C.2   205  TRP205      0.2620
    146  O         45.2680   43.1510   24.8080 O.2   205  TRP205     -0.2715
    147  CB        45.0470   44.1330   21.4240 C.3   205  TRP205      0.0590
    148  CG        44.5030   42.7680   21.0630 C.ar  205  TRP205      0.0006
    149  CD1       45.1610   41.7720   20.3990 C.ar  205  TRP205      0.0946
    150  CD2       43.1900   42.2610   21.3460 C.ar  205  TRP205      0.0152
    151  NE1       44.3400   40.6780   20.2470 N.ar  205  TRP205     -0.2442
    152  CE2       43.1250   40.9500   20.8190 C.ar  205  TRP205      0.0810
    153  CE3       42.0620   42.7870   21.9940 C.ar  205  TRP205      0.0012
    154  CZ2       41.9740   40.1550   20.9190 C.ar  205  TRP205      0.0191
    155  CZ3       40.9140   41.9920   22.0960 C.ar  205  TRP205      0.0001
    156  CH2       40.8830   40.6920   21.5600 C.ar  205  TRP205      0.0015
    157  N         43.8080   44.5790   23.8460 N.am  206  GLY206     -0.1940
    158  CA        42.8120   44.4400   24.8880 C.3   206  GLY206      0.2014
    159  C         41.7020   45.4530   24.6930 C.2   206  GLY206      0.2639
    160  O         41.9350   46.5380   24.1620 O.2   206  GLY206     -0.2714
    161  N         40.4880   45.0980   25.0970 N.am  207  GLU207     -0.1963
    162  CA        39.3690   46.0180   24.9830 C.3   207  GLU207      0.1733
    163  C         39.5440   47.0550   26.0850 C.2   207  GLU207      0.2617
    164  O         39.1360   46.8430   27.2260 O.2   207  GLU207     -0.2715
    165  CB        38.0450   45.2710   25.1510 C.3   207  GLU207      0.0429
    166  CG        37.7150   44.3610   23.9820 C.3   207  GLU207      0.1163
    167  CD        36.4620   43.5350   24.2160 C.2   207  GLU207      0.3649
    168  OE1       35.3750   44.1300   24.3880 O.co2 207  GLU207     -0.2457
    169  OE2       36.5690   42.2870   24.2290 O.co2 207  GLU207     -0.2457
    170  N         40.1620   48.1770   25.7370 N.am  208  GLY208     -0.1940
    171  CA        40.3960   49.2110   26.7250 C.3   208  GLY208      0.2014
    172  C         41.5560   48.7880   27.6090 C.2   208  GLY208      0.2639
    173  O         42.4430   48.0600   27.1630 O.2   208  GLY208     -0.2714
    174  N         41.5570   49.2280   28.8620 N.am  209  CYS209     -0.1967
    175  CA        42.6330   48.8670   29.7640 C.3   209  CYS209      0.1712
    176  C         42.1530   48.6310   31.1770 C.2   209  CYS209      0.2296
    177  O         41.7630   49.5630   31.8770 O.2   209  CYS209     -0.2864
    178  CB        43.7190   49.9470   29.7600 C.3   209  CYS209      0.0983
    179  SG        44.5940   50.0870   28.1860 S.3   209  CYS209     -0.0798
    180  N         39.4760   47.1760   32.1710 N.3   211  ARG211     -0.1245
    181  CA        38.0360   47.3800   32.3360 C.3   211  ARG211      0.1563
    182  C         37.5120   46.1730   33.0960 C.2   211  ARG211      0.2260
    183  O         38.2930   45.3690   33.6080 O.2   211  ARG211     -0.2867
    184  CB        37.3210   47.4380   30.9840 C.3   211  ARG211      0.0307
    185  CG        37.7180   48.5910   30.0860 C.3   211  ARG211      0.0489
    186  CD        36.8160   48.6210   28.8550 C.3   211  ARG211      0.2205
    187  NE        37.2400   49.6050   27.8630 N.pl3 211  ARG211     -0.0865
    188  CZ        36.6030   49.8340   26.7190 C.cat 211  ARG211      0.5346
    189  NH1       35.5040   49.1490   26.4210 N.pl3 211  ARG211      0.1354
    190  NH2       37.0670   50.7410   25.8670 N.pl3 211  ARG211      0.1354
    191  N         40.3900   41.0990   29.7880 N.3   215  TYR215     -0.1227
    192  CA        41.7550   40.7730   30.1850 C.3   215  TYR215      0.1736
    193  C         42.7380   41.3200   29.1650 C.2   215  TYR215      0.2596
    194  O         42.3480   41.8910   28.1550 O.2   215  TYR215     -0.2718
    195  CB        41.9360   39.2460   30.2800 C.3   215  TYR215      0.0548
    196  CG        40.9720   38.5340   31.2180 C.ar  215  TYR215     -0.0200
    197  CD1       41.1230   38.6120   32.6000 C.ar  215  TYR215     -0.0009
    198  CD2       39.9020   37.7890   30.7120 C.ar  215  TYR215     -0.0009
    199  CE1       40.2350   37.9660   33.4540 C.ar  215  TYR215      0.0417
    200  CE2       39.0050   37.1410   31.5530 C.ar  215  TYR215      0.0417
    201  CZ        39.1740   37.2300   32.9220 C.ar  215  TYR215      0.1957
    202  OH        38.2950   36.5830   33.7600 O.3   215  TYR215     -0.2866
    203  N         44.0230   41.1390   29.4350 N.am  216  GLY216     -0.1942
    204  CA        45.0320   41.5820   28.4920 C.3   216  GLY216      0.2014
    205  C         45.2420   40.4550   27.4950 C.2   216  GLY216      0.2639
    206  O         45.2760   39.2850   27.8750 O.2   216  GLY216     -0.2714
    207  N         45.3720   40.8010   26.2200 N.am  217  ILE217     -0.1963
    208  CA        45.5730   39.8040   25.1800 C.3   217  ILE217      0.1727
    209  C         47.0450   39.7880   24.7840 C.2   217  ILE217      0.2616
    210  O         47.6330   40.8350   24.4910 O.2   217  ILE217     -0.2715
    211  CB        44.7010   40.1270   23.9520 C.3   217  ILE217      0.0290
    212  CG1       43.2400   40.2930   24.3860 C.3   217  ILE217      0.0022
    213  CG2       44.8510   39.0410   22.9100 C.3   217  ILE217      0.0023
    214  CD1       42.6730   39.1110   25.1500 C.3   217  ILE217      0.0001
    215  N         47.6430   38.6020   24.7820 N.am  218  TYR218     -0.1974
    216  CA        49.0600   38.4800   24.4530 C.3   218  TYR218      0.1639
    217  C         49.3640   37.4790   23.3600 C.2   218  TYR218      0.2290
    218  O         48.6440   36.4990   23.2050 O.2   218  TYR218     -0.2864
    219  CB        49.8380   38.0640   25.6920 C.3   218  TYR218      0.0560
    220  CG        49.7660   39.0490   26.8240 C.ar  218  TYR218     -0.0198
    221  CD1       48.6430   39.1240   27.6420 C.ar  218  TYR218     -0.0009
    222  CD2       50.8430   39.8920   27.0940 C.ar  218  TYR218     -0.0009
    223  CE1       48.6020   40.0190   28.7030 C.ar  218  TYR218      0.0417
    224  CE2       50.8090   40.7740   28.1450 C.ar  218  TYR218      0.0417
    225  CZ        49.6930   40.8380   28.9430 C.ar  218  TYR218      0.1957
    226  OH        49.6730   41.7450   29.9710 O.3   218  TYR218     -0.2866
@<TRIPOS>BOND
     1    18    19    1
     2    18    17    1
     3    17    16    1
     4    25    26    1
     5    25    24    1
     6    28    26   ar
     7    16    15    1
     8    26    27   ar
     9    24    21    1
    10    11    12    1
    11    15    12    1
    12    20    21    1
    13    20    13   am
    14    12    13    1
    15    21    22    1
    16    13    14    2
    17    34    33    1
    18    22    29   am
    19    22    23    2
    20    29    30    1
    21    35    33    1
    22    33    30    1
    23    30    31    1
    24    36    31   am
    25    36    37    1
    26     2     1    1
    27     2     3    1
    28     2     5    1
    29    31    32    2
    30     4     3    2
    31    37    38    1
    32    37    40    1
    33    38    39    2
    34    95    93    1
    35    44    42   ar
    36    44    46   ar
    37    42    41   ar
    38     5     6    1
    39    94    92    1
    40    47    46    1
    41    46    45   ar
    42    41    40    1
    43    41    43   ar
    44    93    92    1
    45    92    89    1
    46     6     8   ar
    47     6     7   ar
    48    45    43   ar
    49     8    10   ar
    50     7     9   ar
    51    83    85   ar
    52    83    82   ar
    53    85    87   ar
    54    89    88    1
    55    89    90    1
    56    88    79   am
    57    91    90    2
    58    10     9   ar
    59    81    82    1
    60    81    78    1
    61    82    84   ar
    62    87    86   ar
    63    78    79    1
    64    78    77    1
    65    79    80    2
    66   142   141    1
    67   151   149   ar
    68   151   152   ar
    69   149   148   ar
    70    84    86   ar
    71   152   154   ar
    72   152   150   ar
    73   154   156   ar
    74   148   150   ar
    75   148   147    1
    76   150   153   ar
    77   141   138    1
    78   140   139    2
    79   147   144    1
    80   156   155   ar
    81   122   121    2
    82   138   139    1
    83   138   137    1
    84   123   121   am
    85   139   143   am
    86   153   155   ar
    87   128   129    1
    88   128   125    1
    89   121   120    1
    90   133   132    2
    91   143   144    1
    92   127   126    2
    93   126   125    1
    94   144   145    1
    95   213   211    1
    96   125   124    1
    97   137   132   am
    98   218   217    2
    99   120   119    1
   100   132   131    1
   101   217   216    1
   102    58    56    1
   103   157   145   am
   104   157   158    1
   105   145   146    2
   106   211   212    1
   107   211   208    1
   108   166   167    1
   109   166   165    1
   110   160   159    2
   111   167   169   ar
   112   167   168   ar
   113   212   214    1
   114   216   215    1
   115   216   219    1
   116   210   209    2
   117   130   131    1
   118   119   116    1
   119   159   158    1
   120   159   161   am
   121   131   134    1
   122   215   209   am
   123   209   208    1
   124   162   161    1
   125   162   165    1
   126   162   163    1
   127    56    57    1
   128    56    55    2
   129   116   117    1
   130   116   115    1
   131   208   207    1
   132   134   135    1
   133   134   136    1
   134   117   118    2
   135   219   220    1
   136   170   163   am
   137   170   171    1
   138    55    54    1
   139   190   188    1
   140   163   164    2
   141   207   205   am
   142   115   111   am
   143   189   188    1
   144   188   187    2
   145   171   172    1
   146   220   222   ar
   147   220   221   ar
   148   112   111    2
   149    76    75    1
   150    75    74    1
   151   222   224   ar
   152   111   110    1
   153   173   172    2
   154    54    53    1
   155   205   206    2
   156   205   204    1
   157    74    73    1
   158   172   174   am
   159   221   223   ar
   160    73    72    1
   161   187   186    1
   162    53    52    1
   163    67    65   ar
   164    62    61    2
   165   224   225   ar
   166   194   193    2
   167   179   178    1
   168   110   109    1
   169   110   113    1
   170    72    69    1
   171   204   203    1
   172    71    70    2
   173    69    70    1
   174    69    68    1
   175   223   225   ar
   176   114   113    1
   177    64    65    1
   178    64    63    1
   179    65    66   ar
   180   186   185    1
   181   174   175    1
   182   225   226    1
   183   109   106   am
   184    61    68   am
   185    61    60    1
   186   193   203   am
   187   193   192    1
   188    48    49    1
   189    52    49    1
   190   108   105    1
   191   106   107    2
   192   106   105    1
   193   178   175    1
   194   175   176    1
   195   191   192    1
   196    49    50    1
   197   185   184    1
   198    60    63    1
   199    60    59    1
   200   192   195    1
   201   195   196    1
   202   105   104    1
   203   198   196   ar
   204   198   200   ar
   205   103   101   ar
   206   102   101   ar
   207   184   181    1
   208   176   177    2
   209   196   197   ar
   210   104    98   am
   211   101   100    1
   212    50    51    2
   213   200   201   ar
   214   180   181    1
   215   181   182    1
   216    98    99    2
   217    98    97    1
   218   197   199   ar
   219   100    97    1
   220   201   199   ar
   221   201   202    1
   222   182   183    2
   223    97    96    1
