@<TRIPOS>MOLECULE
tmp/2ra5A00.pdb
 117 111 0 0 0
SMALL
GASTEIGER

@<TRIPOS>ATOM
      1  N         36.9410   15.7010   38.6030 N.3     6  ARG6       -0.1245
      2  CA        36.1540   16.9240   38.5110 C.3     6  ARG6        0.1563
      3  C         36.4190   17.6050   37.1750 C.2     6  ARG6        0.2260
      4  O         37.5690   17.7340   36.7620 O.2     6  ARG6       -0.2867
      5  CB        36.5260   17.8770   39.6350 C.3     6  ARG6        0.0307
      6  CG        36.3520   17.2950   41.0260 C.3     6  ARG6        0.0489
      7  CD        36.7830   18.3250   42.0870 C.3     6  ARG6        0.2205
      8  NE        36.5610   17.8290   43.4390 N.pl3   6  ARG6       -0.0865
      9  CZ        36.6580   18.5880   44.5310 C.cat   6  ARG6        0.5346
     10  NH1       36.9790   19.8840   44.4240 N.pl3   6  ARG6        0.1354
     11  NH2       36.4370   18.0600   45.7370 N.pl3   6  ARG6        0.1354
     12  N         34.3350   33.7950   52.0020 N.3    41  ARG41      -0.1245
     13  CA        34.9390   34.2530   50.7490 C.3    41  ARG41       0.1563
     14  C         33.9030   34.4320   49.6410 C.2    41  ARG41       0.2260
     15  O         32.9550   33.6540   49.5190 O.2    41  ARG41      -0.2867
     16  CB        35.9960   33.2850   50.2090 C.3    41  ARG41       0.0307
     17  CG        37.2030   33.0440   51.0650 C.3    41  ARG41       0.0489
     18  CD        37.2480   31.5610   51.4170 C.3    41  ARG41       0.2205
     19  NE        38.1470   30.7720   50.5840 N.pl3  41  ARG41      -0.0865
     20  CZ        38.0670   29.4530   50.4570 C.cat  41  ARG41       0.5346
     21  NH1       38.9220   28.7950   49.6820 N.pl3  41  ARG41       0.1354
     22  NH2       37.1120   28.7920   51.0970 N.pl3  41  ARG41       0.1354
     23  N         33.9140   34.2630   45.5670 N.3    43  ARG43      -0.1245
     24  CA        34.6910   33.8740   44.3920 C.3    43  ARG43       0.1563
     25  C         34.1130   34.5540   43.1730 C.2    43  ARG43       0.2260
     26  O         32.9090   34.4760   42.9160 O.2    43  ARG43      -0.2867
     27  CB        34.6440   32.3670   44.1810 C.3    43  ARG43       0.0307
     28  CG        35.4660   31.6100   45.1720 C.3    43  ARG43       0.0489
     29  CD        36.8730   31.3330   44.6680 C.3    43  ARG43       0.2205
     30  NE        37.2630   29.9920   45.1030 N.pl3  43  ARG43      -0.0865
     31  CZ        38.3050   29.7150   45.8780 C.cat  43  ARG43       0.5346
     32  NH1       39.1160   30.6870   46.2850 N.pl3  43  ARG43       0.1354
     33  NH2       38.5470   28.4560   46.2270 N.pl3  43  ARG43       0.1354
     34  N         31.3520   31.4150   49.7920 N.3    52  LEU52      -0.1245
     35  CA        31.9260   30.3040   50.5480 C.3    52  LEU52       0.1561
     36  C         32.1170   30.5900   52.0440 C.2    52  LEU52       0.2260
     37  O         33.0070   31.3520   52.4090 O.2    52  LEU52      -0.2867
     38  CB        33.2890   29.9230   49.9550 C.3    52  LEU52       0.0270
     39  CG        33.4390   29.7360   48.4400 C.3    52  LEU52       0.0019
     40  CD1       34.8210   29.2030   48.0960 C.3    52  LEU52       0.0001
     41  CD2       32.3390   28.8340   47.8850 C.3    52  LEU52       0.0001
     42  N         33.3330   28.9060   55.5360 N.3    54  ASN54      -0.1240
     43  CA        33.9910   27.7490   56.1510 C.3    54  ASN54       0.1653
     44  C         34.2680   27.8520   57.6520 C.2    54  ASN54       0.2266
     45  O         34.4940   28.9350   58.1940 O.2    54  ASN54      -0.2867
     46  CB        35.2730   27.3540   55.3890 C.3    54  ASN54       0.1155
     47  CG        35.0070   27.0520   53.9160 C.2    54  ASN54       0.2627
     48  OD1       34.8280   25.9010   53.5180 O.2    54  ASN54      -0.2716
     49  ND2       34.9450   28.0880   53.1130 N.am   54  ASN54      -0.0877
     50  N         43.8300   28.3330   47.2770 N.3    72  GLY72      -0.1210
     51  CA        42.7000   27.6050   47.8320 C.3    72  GLY72       0.1956
     52  C         42.8770   27.1560   49.2750 C.2    72  GLY72       0.2612
     53  O         43.9890   27.0000   49.7860 O.2    72  GLY72      -0.2717
     54  N         41.7550   26.9290   49.9380 N.am   73  LEU73      -0.1965
     55  CA        41.7660   26.5780   51.3540 C.3    73  LEU73       0.1728
     56  C         42.4000   25.2130   51.6010 C.2    73  LEU73       0.2616
     57  O         43.0890   25.0240   52.6030 O.2    73  LEU73      -0.2715
     58  CB        40.3400   26.6330   51.9200 C.3    73  LEU73       0.0311
     59  CG        40.1270   26.1880   53.3670 C.3    73  LEU73       0.0022
     60  CD1       40.9690   27.0370   54.3100 C.3    73  LEU73       0.0001
     61  CD2       38.6490   26.2390   53.7530 C.3    73  LEU73       0.0001
     62  N         42.1800   24.2680   50.6860 N.am   74  TYR74      -0.1960
     63  CA        42.7780   22.9350   50.8100 C.3    74  TYR74       0.1771
     64  C         44.2990   22.9690   50.7180 C.2    74  TYR74       0.2619
     65  O         44.9840   22.2780   51.4750 O.2    74  TYR74      -0.2715
     66  CB        42.2280   21.9890   49.7460 C.3    74  TYR74       0.0574
     67  CG        40.9440   21.3180   50.1350 C.ar   74  TYR74      -0.0198
     68  CD1       40.1120   21.8650   51.1190 C.ar   74  TYR74      -0.0009
     69  CD2       40.5470   20.1440   49.5100 C.ar   74  TYR74      -0.0009
     70  CE1       38.9310   21.2430   51.4800 C.ar   74  TYR74       0.0417
     71  CE2       39.3750   19.5190   49.8580 C.ar   74  TYR74       0.0417
     72  CZ        38.5680   20.0680   50.8370 C.ar   74  TYR74       0.1957
     73  OH        37.3980   19.4180   51.1540 O.3    74  TYR74      -0.2866
     74  N         44.8190   23.7580   49.7760 N.am   75  ARG75      -0.1977
     75  CA        46.2610   23.8870   49.5770 C.3    75  ARG75       0.1597
     76  C         46.9000   24.4410   50.8360 C.2    75  ARG75       0.2287
     77  O         47.9210   23.9330   51.2990 O.2    75  ARG75      -0.2864
     78  CB        46.5790   24.7850   48.3700 C.3    75  ARG75       0.0334
     79  CG        48.0730   25.1070   48.1840 C.3    75  ARG75       0.0492
     80  CD        48.3130   25.9840   46.9470 C.3    75  ARG75       0.2205
     81  NE        49.5510   26.7700   47.0160 N.pl3  75  ARG75      -0.0865
     82  CZ        50.5430   26.7190   46.1250 C.cat  75  ARG75       0.5346
     83  NH1       51.6150   27.4840   46.2860 N.pl3  75  ARG75       0.1354
     84  NH2       50.4690   25.9180   45.0680 N.pl3  75  ARG75       0.1354
     85  N         29.8300   20.5320   52.8800 N.3   115  ARG115     -0.1245
     86  CA        30.9010   19.5580   52.8660 C.3   115  ARG115      0.1563
     87  C         31.5910   19.4670   54.2290 C.2   115  ARG115      0.2260
     88  O         31.8330   20.4890   54.8740 O.2   115  ARG115     -0.2867
     89  CB        31.8980   19.9460   51.7710 C.3   115  ARG115      0.0307
     90  CG        33.2070   19.1900   51.7700 C.3   115  ARG115      0.0489
     91  CD        34.2130   19.8820   50.8690 C.3   115  ARG115      0.2205
     92  NE        34.5890   21.2300   51.3250 N.pl3 115  ARG115     -0.0865
     93  CZ        35.1510   22.1540   50.5430 C.cat 115  ARG115      0.5346
     94  NH1       35.4680   23.3530   51.0290 N.pl3 115  ARG115      0.1354
     95  NH2       35.3960   21.8860   49.2640 N.pl3 115  ARG115      0.1354
     96  N         28.1990   26.3880   51.2630 N.3   130  HIS130     -0.1241
     97  CA        28.4180   27.2250   50.0910 C.3   130  HIS130      0.1621
     98  C         27.1710   27.4450   49.2550 C.2   130  HIS130      0.2264
     99  O         26.2790   26.6020   49.2190 O.2   130  HIS130     -0.2867
    100  CB        29.4820   26.5900   49.2030 C.3   130  HIS130      0.0745
    101  CG        30.7220   26.1940   49.9260 C.ar  130  HIS130      0.0817
    102  ND1       31.3150   24.9670   49.7710 N.ar  130  HIS130     -0.2268
    103  CD2       31.4960   26.8710   50.8190 C.ar  130  HIS130      0.1154
    104  CE1       32.4000   24.8930   50.5190 C.ar  130  HIS130      0.1986
    105  NE2       32.5280   26.0510   51.1640 N.ar  130  HIS130     -0.2212
    106  N         26.0670   28.9260   45.1720 N.3   132  TYR132     -0.1241
    107  CA        26.5640   29.2050   43.8300 C.3   132  TYR132      0.1605
    108  C         25.4600   29.7540   42.9480 C.2   132  TYR132      0.2264
    109  O         24.3440   29.2130   42.9420 O.2   132  TYR132     -0.2867
    110  CB        27.0850   27.9280   43.1840 C.3   132  TYR132      0.0534
    111  CG        28.0490   27.1480   44.0300 C.ar  132  TYR132     -0.0201
    112  CD1       27.5930   26.2410   44.9760 C.ar  132  TYR132     -0.0009
    113  CD2       29.4240   27.3070   43.8760 C.ar  132  TYR132     -0.0009
    114  CE1       28.4820   25.5200   45.7540 C.ar  132  TYR132      0.0417
    115  CE2       30.3150   26.5940   44.6460 C.ar  132  TYR132      0.0417
    116  CZ        29.8460   25.7000   45.5870 C.ar  132  TYR132      0.1957
    117  OH        30.7460   24.9830   46.3570 O.3   132  TYR132     -0.2866
@<TRIPOS>BOND
     1     4     3    2
     2     3     2    1
     3     2     1    1
     4     2     5    1
     5     5     6    1
     6     6     7    1
     7     7     8    1
     8    26    25    2
     9   109   108    2
    10   108   107    1
    11    25    24    1
    12   110   107    1
    13   110   111    1
    14     8     9    2
    15   107   106    1
    16   113   111   ar
    17   113   115   ar
    18   111   112   ar
    19    27    24    1
    20    27    28    1
    21    24    23    1
    22    10     9    1
    23     9    11    1
    24   115   116   ar
    25    29    30    1
    26    29    28    1
    27   112   114   ar
    28    84    82    1
    29    30    31    2
    30   116   114   ar
    31   116   117    1
    32    31    33    1
    33    31    32    1
    34    82    83    1
    35    82    81    2
    36    80    81    1
    37    80    79    1
    38    50    51    1
    39    51    52    1
    40    41    39    1
    41    40    39    1
    42    79    78    1
    43    78    75    1
    44    39    38    1
    45   100   101    1
    46   100    97    1
    47    99    98    2
    48    98    97    1
    49    95    93    1
    50    52    53    2
    51    52    54   am
    52    69    71   ar
    53    69    67   ar
    54    15    14    2
    55    75    74    1
    56    75    76    1
    57    14    13    1
    58    21    20    1
    59    66    67    1
    60    66    63    1
    61   102   101   ar
    62   102   104   ar
    63    74    64   am
    64    34    35    1
    65    71    72   ar
    66   101   103   ar
    67    54    55    1
    68    38    35    1
    69    97    96    1
    70    67    68   ar
    71    16    13    1
    72    16    17    1
    73    20    19    2
    74    20    22    1
    75   104   105   ar
    76    93    94    1
    77    93    92    2
    78    35    36    1
    79    19    18    1
    80    62    63    1
    81    62    56   am
    82    64    63    1
    83    64    65    2
    84    13    12    1
    85   103   105   ar
    86    76    77    2
    87    72    73    1
    88    72    70   ar
    89    91    92    1
    90    91    90    1
    91    17    18    1
    92    68    70   ar
    93    55    56    1
    94    55    58    1
    95    56    57    2
    96    90    89    1
    97    89    86    1
    98    58    59    1
    99    36    37    2
   100    86    85    1
   101    86    87    1
   102    49    47   am
   103    59    61    1
   104    59    60    1
   105    48    47    2
   106    47    46    1
   107    87    88    2
   108    46    43    1
   109    42    43    1
   110    43    44    1
   111    44    45    2
