@<TRIPOS>MOLECULE
tmp/2ra6C00.pdb
 115 109 0 0 0
SMALL
GASTEIGER

@<TRIPOS>ATOM
      1  N         23.6130   61.1120   89.2180 N.3    31  ILE31      -0.1245
      2  CA        23.2690   59.7270   89.4650 C.3    31  ILE31       0.1561
      3  C         22.5920   59.6480   90.8150 C.2    31  ILE31       0.2260
      4  O         23.0900   60.1890   91.8000 O.2    31  ILE31      -0.2867
      5  CB        24.5240   58.8390   89.4850 C.3    31  ILE31       0.0252
      6  CG1       25.2020   58.8770   88.1130 C.3    31  ILE31       0.0019
      7  CG2       24.1480   57.4080   89.8700 C.3    31  ILE31       0.0019
      8  CD1       26.5280   58.1230   88.0580 C.3    31  ILE31       0.0001
      9  N         21.0620   52.3030   89.9160 N.3    38  LEU38      -0.1231
     10  CA        21.6110   53.6120   89.5990 C.3    38  LEU38       0.1693
     11  C         20.7480   54.3380   88.5810 C.2    38  LEU38       0.2592
     12  O         20.6650   53.9320   87.4180 O.2    38  LEU38      -0.2718
     13  CB        23.0280   53.4720   89.0430 C.3    38  LEU38       0.0284
     14  CG        24.0450   52.7110   89.8920 C.3    38  LEU38       0.0019
     15  CD1       25.3830   52.7030   89.1700 C.3    38  LEU38       0.0001
     16  CD2       24.1850   53.3670   91.2600 C.3    38  LEU38       0.0001
     17  N         20.0940   55.4070   89.0190 N.am   39  ASN39      -0.1960
     18  CA        19.2620   56.1860   88.1170 C.3    39  ASN39       0.1819
     19  C         20.1050   57.3240   87.5730 C.2    39  ASN39       0.2621
     20  O         20.4260   58.2710   88.2880 O.2    39  ASN39      -0.2715
     21  CB        18.0390   56.7390   88.8490 C.3    39  ASN39       0.1195
     22  CG        17.1160   55.6440   89.3340 C.2    39  ASN39       0.2630
     23  OD1       16.9200   54.6400   88.6480 O.2    39  ASN39      -0.2716
     24  ND2       16.5340   55.8330   90.5140 N.am   39  ASN39      -0.0877
     25  N         20.4630   57.2240   86.3000 N.am   40  GLY40      -0.1954
     26  CA        21.2880   58.2450   85.7000 C.3    40  GLY40       0.1869
     27  C         20.5460   59.2090   84.8090 C.2    40  GLY40       0.2309
     28  O         19.6200   58.8350   84.0850 O.2    40  GLY40      -0.2863
     29  N         21.3640   61.8700   81.9020 N.3    42  PHE42      -0.1241
     30  CA        22.3580   62.2880   80.9180 C.3    42  PHE42       0.1605
     31  C         21.7630   63.2780   79.9340 C.2    42  PHE42       0.2264
     32  O         20.5450   63.4600   79.8660 O.2    42  PHE42      -0.2867
     33  CB        22.8310   61.1060   80.0550 C.3    42  PHE42       0.0534
     34  CG        23.4110   59.9580   80.8160 C.ar   42  PHE42      -0.0203
     35  CD1       22.5900   59.0520   81.4820 C.ar   42  PHE42      -0.0042
     36  CD2       24.7860   59.7450   80.8140 C.ar   42  PHE42      -0.0042
     37  CE1       23.1340   57.9460   82.1330 C.ar   42  PHE42      -0.0003
     38  CE2       25.3370   58.6450   81.4610 C.ar   42  PHE42      -0.0003
     39  CZ        24.5120   57.7400   82.1220 C.ar   42  PHE42      -0.0000
     40  N         18.2480   56.8550   82.2950 N.3    55  LEU55      -0.1231
     41  CA        18.4630   55.4200   82.2430 C.3    55  LEU55       0.1693
     42  C         18.5980   54.8830   83.6550 C.2    55  LEU55       0.2593
     43  O         18.8560   55.6350   84.5970 O.2    55  LEU55      -0.2718
     44  CB        19.7320   55.1060   81.4450 C.3    55  LEU55       0.0284
     45  CG        19.7420   55.4900   79.9590 C.3    55  LEU55       0.0019
     46  CD1       21.1450   55.3300   79.3950 C.3    55  LEU55       0.0001
     47  CD2       18.7500   54.6290   79.1940 C.3    55  LEU55       0.0001
     48  N         18.4000   53.5820   83.8060 N.am   56  THR56      -0.1939
     49  CA        18.5340   52.9500   85.1040 C.3    56  THR56       0.2028
     50  C         19.3680   51.6880   84.9650 C.2    56  THR56       0.2642
     51  O         19.0130   50.7800   84.2090 O.2    56  THR56      -0.2714
     52  CB        17.1650   52.5630   85.7030 C.3    56  THR56       0.1808
     53  OG1       16.4190   53.7490   86.0050 O.3    56  THR56      -0.2208
     54  CG2       17.3530   51.7530   86.9740 C.3    56  THR56       0.0379
     55  N         20.4860   51.6510   85.6790 N.am   57  ALA57      -0.1977
     56  CA        21.3620   50.4850   85.6760 C.3    57  ALA57       0.1597
     57  C         20.9300   49.6970   86.9020 C.2    57  ALA57       0.2287
     58  O         21.0790   50.1660   88.0290 O.2    57  ALA57      -0.2864
     59  CB        22.8150   50.9130   85.8010 C.3    57  ALA57       0.0319
     60  N         22.0930   47.1220   82.1580 N.3    68  LEU68      -0.1245
     61  CA        21.4260   48.2550   81.5330 C.3    68  LEU68       0.1561
     62  C         20.8890   47.9110   80.1550 C.2    68  LEU68       0.2260
     63  O         21.5920   47.3330   79.3270 O.2    68  LEU68      -0.2867
     64  CB        22.3970   49.4330   81.4000 C.3    68  LEU68       0.0270
     65  CG        21.8910   50.6240   80.5750 C.3    68  LEU68       0.0019
     66  CD1       20.7830   51.3330   81.3320 C.3    68  LEU68       0.0001
     67  CD2       23.0350   51.5790   80.2900 C.3    68  LEU68       0.0001
     68  N         27.4550   46.4030   83.0180 N.3    76  VAL76      -0.1245
     69  CA        28.1470   47.5910   83.5020 C.3    76  VAL76       0.1561
     70  C         28.9450   47.3180   84.7670 C.2    76  VAL76       0.2260
     71  O         28.4340   46.7260   85.7170 O.2    76  VAL76      -0.2867
     72  CB        27.1380   48.7210   83.8100 C.3    76  VAL76       0.0252
     73  CG1       27.8810   49.9920   84.1900 C.3    76  VAL76       0.0019
     74  CG2       26.2280   48.9580   82.6150 C.3    76  VAL76       0.0019
     75  N         33.1310   53.8380   84.8050 N.3    89  PHE89      -0.1241
     76  CA        32.1210   52.8610   84.4350 C.3    89  PHE89       0.1605
     77  C         32.5230   52.2170   83.1220 C.2    89  PHE89       0.2264
     78  O         32.7730   52.9030   82.1310 O.2    89  PHE89      -0.2867
     79  CB        30.7400   53.5040   84.2740 C.3    89  PHE89       0.0534
     80  CG        30.0710   53.8500   85.5760 C.ar   89  PHE89      -0.0203
     81  CD1       30.1970   55.1240   86.1190 C.ar   89  PHE89      -0.0042
     82  CD2       29.3080   52.9000   86.2560 C.ar   89  PHE89      -0.0042
     83  CE1       29.5690   55.4520   87.3210 C.ar   89  PHE89      -0.0003
     84  CE2       28.6770   53.2190   87.4590 C.ar   89  PHE89      -0.0003
     85  CZ        28.8090   54.4970   87.9920 C.ar   89  PHE89      -0.0000
     86  N         31.3220   49.6950   80.2190 N.3    91  PHE91      -0.1241
     87  CA        30.1340   49.1150   79.6110 C.3    91  PHE91       0.1605
     88  C         30.5310   48.0750   78.5890 C.2    91  PHE91       0.2264
     89  O         31.3430   48.3470   77.7130 O.2    91  PHE91      -0.2867
     90  CB        29.3170   50.1740   78.8710 C.3    91  PHE91       0.0534
     91  CG        28.4930   51.0440   79.7590 C.ar   91  PHE91      -0.0203
     92  CD1       27.1260   51.1720   79.5400 C.ar   91  PHE91      -0.0042
     93  CD2       29.0710   51.7400   80.8080 C.ar   91  PHE91      -0.0042
     94  CE1       26.3460   51.9820   80.3570 C.ar   91  PHE91      -0.0003
     95  CE2       28.2970   52.5570   81.6330 C.ar   91  PHE91      -0.0003
     96  CZ        26.9320   52.6730   81.4030 C.ar   91  PHE91      -0.0000
     97  N         33.8710   54.9570   80.6040 N.3   104  ASN104     -0.1240
     98  CA        33.4750   56.3110   80.9630 C.3   104  ASN104      0.1653
     99  C         34.2140   56.7590   82.2180 C.2   104  ASN104      0.2266
    100  O         34.2530   56.0260   83.2050 O.2   104  ASN104     -0.2867
    101  CB        31.9690   56.3550   81.2620 C.3   104  ASN104      0.1155
    102  CG        31.1090   55.9720   80.0670 C.2   104  ASN104      0.2627
    103  OD1       30.5060   56.8310   79.4310 O.2   104  ASN104     -0.2716
    104  ND2       31.0380   54.6800   79.7690 N.am  104  ASN104     -0.0877
    105  N         34.1270   59.7170   84.9710 N.3   106  PHE106     -0.1241
    106  CA        33.3260   60.8340   85.4870 C.3   106  PHE106      0.1605
    107  C         34.0390   61.5850   86.6020 C.2   106  PHE106      0.2264
    108  O         34.7030   60.9720   87.4440 O.2   106  PHE106     -0.2867
    109  CB        32.0070   60.3430   86.0870 C.3   106  PHE106      0.0534
    110  CG        31.0810   59.6750   85.1170 C.ar  106  PHE106     -0.0203
    111  CD1       29.9980   58.9580   85.6030 C.ar  106  PHE106     -0.0042
    112  CD2       31.2510   59.7880   83.7430 C.ar  106  PHE106     -0.0042
    113  CE1       29.0860   58.3600   84.7430 C.ar  106  PHE106     -0.0003
    114  CE2       30.3440   59.1930   82.8660 C.ar  106  PHE106     -0.0003
    115  CZ        29.2610   58.4790   83.3680 C.ar  106  PHE106     -0.0000
@<TRIPOS>BOND
     1    89    88    2
     2    88    87    1
     3    90    87    1
     4    90    91    1
     5    47    45    1
     6    63    62    2
     7    46    45    1
     8   103   102    2
     9    92    91   ar
    10    92    94   ar
    11    87    86    1
    12    91    93   ar
    13   104   102   am
    14    32    31    2
    15    31    30    1
    16    45    44    1
    17    33    34    1
    18    33    30    1
    19   102   101    1
    20    62    61    1
    21    67    65    1
    22    94    96   ar
    23    65    66    1
    24    65    64    1
    25    97    98    1
    26    93    95   ar
    27    36    34   ar
    28    36    38   ar
    29    34    35   ar
    30    30    29    1
    31    98   101    1
    32    98    99    1
    33    64    61    1
    34    96    95   ar
    35    44    41    1
    36    38    39   ar
    37    35    37   ar
    38    61    60    1
    39    39    37   ar
    40    78    77    2
    41    99   100    2
    42    41    40    1
    43    41    42    1
    44    74    72    1
    45   114   115   ar
    46   114   112   ar
    47    68    69    1
    48    77    76    1
    49   115   113   ar
    50    69    72    1
    51    69    70    1
    52    42    48   am
    53    42    43    2
    54   112   110   ar
    55    48    49    1
    56    72    73    1
    57    28    27    2
    58    51    50    2
    59    79    76    1
    60    79    80    1
    61    76    75    1
    62   113   111   ar
    63    70    71    2
    64    27    26    1
    65    50    49    1
    66    50    55   am
    67   105   106    1
    68    49    52    1
    69   110   111   ar
    70   110   109    1
    71   106   109    1
    72   106   107    1
    73    80    81   ar
    74    80    82   ar
    75    56    55    1
    76    56    59    1
    77    56    57    1
    78    26    25    1
    79    52    53    1
    80    52    54    1
    81    81    83   ar
    82    82    84   ar
    83    25    19   am
    84   107   108    2
    85    57    58    2
    86    83    85   ar
    87    12    11    2
    88    84    85   ar
    89    19    18    1
    90    19    20    2
    91     8     6    1
    92     6     5    1
    93    18    21    1
    94    18    17    1
    95    11    17   am
    96    11    10    1
    97    23    22    2
    98    21    22    1
    99    13    10    1
   100    13    14    1
   101    15    14    1
   102     1     2    1
   103    22    24   am
   104     2     5    1
   105     2     3    1
   106     5     7    1
   107    10     9    1
   108    14    16    1
   109     3     4    2
