@<TRIPOS>MOLECULE
tmp/2rabB01.pdb
 222 216 0 0 0
SMALL
GASTEIGER

@<TRIPOS>ATOM
      1  N          1.6750   32.0710   78.1370 N.3    49  LYS49      -0.1245
      2  CA         0.9370   31.3130   79.1370 C.3    49  LYS49       0.1561
      3  C          1.3200   31.6710   80.5770 C.2    49  LYS49       0.2260
      4  O          0.4400   31.9260   81.3990 O.2    49  LYS49      -0.2867
      5  CB         1.1080   29.8160   78.9220 C.3    49  LYS49       0.0271
      6  CG         0.3910   28.9880   79.9850 C.3    49  LYS49       0.0035
      7  CD         0.9990   27.6230   80.0930 C.3    49  LYS49       0.0206
      8  CE         2.4310   27.6830   80.6160 C.3    49  LYS49       0.1093
      9  NZ         3.1650   26.5070   80.1230 N.3    49  LYS49      -0.1314
     10  N         -8.4870   18.0680   64.5620 N.3   142  PRO142     -0.2116
     11  CA        -8.9900   16.7910   64.0570 C.3   142  PRO142      0.1372
     12  C         -9.8110   16.9590   62.7850 C.2   142  PRO142      0.2244
     13  O        -10.4430   18.0020   62.5840 O.2   142  PRO142     -0.2868
     14  CB        -9.8880   16.2950   65.1910 C.3   142  PRO142      0.0268
     15  CG        -9.4240   17.0340   66.4040 C.3   142  PRO142      0.0207
     16  CD        -9.0400   18.3800   65.8910 C.3   142  PRO142      0.0892
     17  N        -12.6950   16.3280   61.6880 N.3   144  LEU144     -0.1245
     18  CA       -14.0840   16.0900   62.0710 C.3   144  LEU144      0.1561
     19  C        -14.9800   17.1920   61.5250 C.2   144  LEU144      0.2260
     20  O        -14.4960   18.2920   61.2550 O.2   144  LEU144     -0.2867
     21  CB       -14.2180   16.0540   63.5920 C.3   144  LEU144      0.0270
     22  CG       -13.5660   14.8940   64.3300 C.3   144  LEU144      0.0019
     23  CD1      -13.5310   15.2120   65.8060 C.3   144  LEU144      0.0001
     24  CD2      -14.2970   13.5800   64.0580 C.3   144  LEU144      0.0001
     25  N        -11.3690   21.0070   74.6050 N.3   169  ILE169     -0.1231
     26  CA       -11.3730   19.6200   74.1850 C.3   169  ILE169      0.1692
     27  C         -9.9660   19.0650   74.3280 C.2   169  ILE169      0.2593
     28  O         -9.0710   19.3740   73.5340 O.2   169  ILE169     -0.2718
     29  CB       -11.8940   19.4710   72.7410 C.3   169  ILE169      0.0266
     30  CG1      -13.3180   20.0350   72.6440 C.3   169  ILE169      0.0019
     31  CG2      -11.8450   17.9990   72.3060 C.3   169  ILE169      0.0020
     32  CD1      -13.8610   20.1260   71.2390 C.3   169  ILE169      0.0001
     33  N         -9.7780   18.2610   75.3660 N.am  170  GLY170     -0.1942
     34  CA        -8.4730   17.7210   75.6900 C.3   170  GLY170      0.2014
     35  C         -8.0420   18.1370   77.0780 C.2   170  GLY170      0.2639
     36  O         -8.1810   19.3010   77.4580 O.2   170  GLY170     -0.2714
     37  N         -7.5100   17.1770   77.8270 N.am  171  ALA171     -0.1963
     38  CA        -7.1060   17.3870   79.2050 C.3   171  ALA171      0.1728
     39  C         -5.6470   16.9820   79.4310 C.2   171  ALA171      0.2617
     40  O         -5.3030   16.4420   80.4860 O.2   171  ALA171     -0.2715
     41  CB        -8.0280   16.6320   80.1340 C.3   171  ALA171      0.0334
     42  N         -4.8060   17.2350   78.4290 N.am  172  GLY172     -0.1940
     43  CA        -3.3580   17.2540   78.6080 C.3   172  GLY172      0.2014
     44  C         -2.9210   18.5910   79.1960 C.2   172  GLY172      0.2639
     45  O         -3.7670   19.3600   79.6680 O.2   172  GLY172     -0.2714
     46  N         -1.6110   18.8650   79.1660 N.am  173  TYR173     -0.1959
     47  CA        -1.0300   20.1110   79.6980 C.3   173  TYR173      0.1771
     48  C         -1.8560   21.3520   79.3390 C.2   173  TYR173      0.2619
     49  O         -2.3890   22.0450   80.2090 O.2   173  TYR173     -0.2715
     50  CB         0.3750   20.3500   79.1290 C.3   173  TYR173      0.0574
     51  CG         1.5440   19.6060   79.7420 C.ar  173  TYR173     -0.0198
     52  CD1        2.5090   20.2920   80.4880 C.ar  173  TYR173     -0.0009
     53  CD2        1.7240   18.2290   79.5370 C.ar  173  TYR173     -0.0009
     54  CE1        3.6250   19.6420   81.0320 C.ar  173  TYR173      0.0417
     55  CE2        2.8420   17.5540   80.0870 C.ar  173  TYR173      0.0417
     56  CZ         3.7830   18.2790   80.8360 C.ar  173  TYR173      0.1957
     57  OH         4.8730   17.6400   81.3870 O.3   173  TYR173     -0.2866
     58  N         -1.9580   21.6190   78.0450 N.am  174  ILE174     -0.1963
     59  CA        -2.4780   22.8890   77.5860 C.3   174  ILE174      0.1727
     60  C         -3.9800   23.0360   77.8670 C.2   174  ILE174      0.2616
     61  O         -4.4290   24.1150   78.2520 O.2   174  ILE174     -0.2715
     62  CB        -2.0800   23.1940   76.0930 C.3   174  ILE174      0.0290
     63  CG1       -3.2510   23.0850   75.1380 C.3   174  ILE174      0.0022
     64  CG2       -0.9200   22.3230   75.6090 C.3   174  ILE174      0.0023
     65  CD1       -3.9110   24.4140   74.8880 C.3   174  ILE174      0.0001
     66  N         -4.7430   21.9560   77.7020 N.am  175  GLY175     -0.1955
     67  CA        -6.1580   21.9700   78.0400 C.3   175  GLY175      0.1869
     68  C         -6.3950   22.3880   79.4820 C.2   175  GLY175      0.2309
     69  O         -7.2730   23.1920   79.7610 O.2   175  GLY175     -0.2863
     70  N         -4.1250   23.9490   81.5890 N.3   177  GLU177     -0.1245
     71  CA        -3.6240   25.2820   81.8250 C.3   177  GLU177      0.1567
     72  C         -4.5770   26.3360   81.2770 C.2   177  GLU177      0.2260
     73  O         -4.9020   27.3050   81.9710 O.2   177  GLU177     -0.2867
     74  CB        -2.2300   25.4300   81.2450 C.3   177  GLU177      0.0388
     75  CG        -1.2210   24.5570   81.9730 C.3   177  GLU177      0.1160
     76  CD         0.1310   24.5940   81.3350 C.2   177  GLU177      0.3649
     77  OE1        0.2060   24.9780   80.1490 O.co2 177  GLU177     -0.2457
     78  OE2        1.1190   24.2500   82.0190 O.co2 177  GLU177     -0.2457
     79  N        -13.6040   18.6830   78.2390 N.3   192  VAL192     -0.1231
     80  CA       -13.9700   17.3000   77.9370 C.3   192  VAL192      0.1692
     81  C        -12.7170   16.5270   77.5600 C.2   192  VAL192      0.2592
     82  O        -11.7420   17.1150   77.0840 O.2   192  VAL192     -0.2718
     83  CB       -15.0410   17.1960   76.8220 C.3   192  VAL192      0.0266
     84  CG1      -16.3080   17.9200   77.2390 C.3   192  VAL192      0.0020
     85  CG2      -14.5190   17.7420   75.4930 C.3   192  VAL192      0.0020
     86  N        -12.7330   15.2190   77.8000 N.am  193  ALA193     -0.1966
     87  CA       -11.5670   14.3800   77.5260 C.3   193  ALA193      0.1728
     88  C        -11.9360   12.9370   77.2000 C.2   193  ALA193      0.2616
     89  O        -12.9050   12.3860   77.7330 O.2   193  ALA193     -0.2715
     90  CB       -10.5770   14.4300   78.6960 C.3   193  ALA193      0.0334
     91  N        -11.1360   12.3360   76.3280 N.am  194  LEU194     -0.1963
     92  CA       -11.2880   10.9450   75.9210 C.3   194  LEU194      0.1728
     93  C        -11.1420    9.9890   77.0990 C.2   194  LEU194      0.2616
     94  O        -11.8730    9.0040   77.1870 O.2   194  LEU194     -0.2715
     95  CB       -10.2060   10.6180   74.8980 C.3   194  LEU194      0.0311
     96  CG       -10.5220    9.7120   73.7190 C.3   194  LEU194      0.0022
     97  CD1      -11.3590   10.4840   72.6910 C.3   194  LEU194      0.0001
     98  CD2       -9.2060    9.2490   73.1010 C.3   194  LEU194      0.0001
     99  N        -10.2000   10.3000   77.9950 N.am  195  GLU195     -0.1977
    100  CA        -9.8070    9.4250   79.1050 C.3   195  GLU195      0.1602
    101  C        -10.7630    9.4350   80.2990 C.2   195  GLU195      0.2287
    102  O        -11.6900   10.2410   80.3620 O.2   195  GLU195     -0.2864
    103  CB        -8.3970    9.7810   79.5870 C.3   195  GLU195      0.0415
    104  CG        -7.3200    9.6530   78.5270 C.3   195  GLU195      0.1163
    105  CD        -7.2180   10.8780   77.6310 C.2   195  GLU195      0.3649
    106  OE1       -6.9900   10.6940   76.4180 O.co2 195  GLU195     -0.2457
    107  OE2       -7.3640   12.0150   78.1270 O.co2 195  GLU195     -0.2457
    108  N         -1.3230   11.1600   81.5540 N.3   201  GLN201     -0.1245
    109  CA         0.1090   10.8140   81.6180 C.3   201  GLN201      0.1566
    110  C          0.6890   10.9780   83.0250 C.2   201  GLN201      0.2260
    111  O          1.7560   10.4560   83.3270 O.2   201  GLN201     -0.2867
    112  CB         0.9230   11.6550   80.6170 C.3   201  GLN201      0.0367
    113  CG         0.4950   11.4830   79.1510 C.3   201  GLN201      0.0905
    114  CD         0.6100   10.0430   78.6820 C.2   201  GLN201      0.2608
    115  OE1        1.7160    9.4950   78.6010 O.2   201  GLN201     -0.2717
    116  NE2       -0.5330    9.4170   78.3750 N.am  201  GLN201     -0.0878
    117  N        -15.4110   11.3790   76.9610 N.3   225  PHE225     -0.1227
    118  CA       -16.2770   12.1510   76.0760 C.3   225  PHE225      0.1736
    119  C        -15.5610   12.3490   74.7540 C.2   225  PHE225      0.2595
    120  O        -14.6460   13.1750   74.6490 O.2   225  PHE225     -0.2718
    121  CB       -16.5960   13.5150   76.7100 C.3   225  PHE225      0.0547
    122  CG       -17.6620   14.3080   75.9840 C.ar  225  PHE225     -0.0202
    123  CD1      -17.4130   14.8730   74.7370 C.ar  225  PHE225     -0.0042
    124  CD2      -18.9080   14.5140   76.5700 C.ar  225  PHE225     -0.0042
    125  CE1      -18.3960   15.6080   74.0720 C.ar  225  PHE225     -0.0003
    126  CE2      -19.8990   15.2560   75.9130 C.ar  225  PHE225     -0.0003
    127  CZ       -19.6360   15.8060   74.6630 C.ar  225  PHE225     -0.0000
    128  N        -15.9700   11.5810   73.7520 N.am  226  ALA226     -0.1966
    129  CA       -15.3790   11.6780   72.4210 C.3   226  ALA226      0.1728
    130  C        -16.1730   12.6660   71.5770 C.2   226  ALA226      0.2616
    131  O        -17.3700   12.4780   71.3610 O.2   226  ALA226     -0.2715
    132  CB       -15.3420   10.3010   71.7520 C.3   226  ALA226      0.0334
    133  N        -15.5140   13.7250   71.1130 N.am  227  VAL227     -0.1977
    134  CA       -16.1700   14.7070   70.2530 C.3   227  VAL227      0.1596
    135  C        -16.2770   14.1640   68.8250 C.2   227  VAL227      0.2287
    136  O        -15.2700   13.8180   68.2050 O.2   227  VAL227     -0.2864
    137  CB       -15.4490   16.0770   70.2640 C.3   227  VAL227      0.0276
    138  CG1      -16.1810   17.0770   69.3800 C.3   227  VAL227      0.0022
    139  CG2      -15.3450   16.6150   71.6780 C.3   227  VAL227      0.0022
    140  N         -9.5510   23.3940   70.7050 N.3   254  TRP254     -0.1227
    141  CA        -8.9300   22.0970   70.4870 C.3   254  TRP254      0.1737
    142  C         -7.5840   22.0440   71.1940 C.2   254  TRP254      0.2595
    143  O         -6.6950   22.8460   70.9140 O.2   254  TRP254     -0.2718
    144  CB        -8.7240   21.8340   68.9970 C.3   254  TRP254      0.0564
    145  CG        -9.9820   21.6170   68.2140 C.ar  254  TRP254      0.0003
    146  CD1      -10.5460   22.4800   67.3310 C.ar  254  TRP254      0.0946
    147  CD2      -10.8180   20.4520   68.2290 C.ar  254  TRP254      0.0152
    148  NE1      -11.6900   21.9340   66.7930 N.ar  254  TRP254     -0.2442
    149  CE2      -11.8790   20.6870   67.3280 C.ar  254  TRP254      0.0810
    150  CE3      -10.7770   19.2320   68.9190 C.ar  254  TRP254      0.0012
    151  CZ2      -12.8910   19.7470   67.0920 C.ar  254  TRP254      0.0191
    152  CZ3      -11.7900   18.2970   68.6840 C.ar  254  TRP254      0.0001
    153  CH2      -12.8280   18.5630   67.7750 C.ar  254  TRP254      0.0015
    154  N         -7.4400   21.0990   72.1150 N.am  255  ALA255     -0.1966
    155  CA        -6.1940   20.9220   72.8350 C.3   255  ALA255      0.1728
    156  C         -5.8940   19.4210   72.8870 C.2   255  ALA255      0.2616
    157  O         -5.7290   18.8200   73.9520 O.2   255  ALA255     -0.2715
    158  CB        -6.3020   21.5360   74.2260 C.3   255  ALA255      0.0334
    159  N         -5.8250   18.8400   71.6920 N.am  256  VAL256     -0.1963
    160  CA        -5.7530   17.3950   71.5000 C.3   256  VAL256      0.1727
    161  C         -4.3940   16.9030   70.9870 C.2   256  VAL256      0.2617
    162  O         -4.3130   15.8610   70.3350 O.2   256  VAL256     -0.2715
    163  CB        -6.9030   16.8970   70.5780 C.3   256  VAL256      0.0290
    164  CG1       -8.2560   17.2310   71.1900 C.3   256  VAL256      0.0023
    165  CG2       -6.7920   17.4870   69.1650 C.3   256  VAL256      0.0023
    166  N         -3.3350   17.6400   71.3090 N.am  257  GLY257     -0.1940
    167  CA        -1.9740   17.2790   70.9190 C.3   257  GLY257      0.2014
    168  C         -1.4000   18.2010   69.8580 C.2   257  GLY257      0.2638
    169  O         -2.1210   19.0090   69.2630 O.2   257  GLY257     -0.2714
    170  N         -0.0930   18.0950   69.6290 N.am  258  ARG258     -0.1977
    171  CA         0.5340   18.8020   68.5120 C.3   258  ARG258      0.1597
    172  C          1.2860   17.8720   67.5600 C.2   258  ARG258      0.2287
    173  O          1.8380   16.8520   67.9740 O.2   258  ARG258     -0.2864
    174  CB         1.3910   19.9990   68.9630 C.3   258  ARG258      0.0334
    175  CG         2.0740   19.8860   70.3090 C.3   258  ARG258      0.0492
    176  CD         2.8190   21.1690   70.6790 C.3   258  ARG258      0.2205
    177  NE         2.0850   22.3420   70.2330 N.pl3 258  ARG258     -0.0865
    178  CZ         2.5690   23.3030   69.4470 C.cat 258  ARG258      0.5346
    179  NH1        3.8280   23.2780   69.0200 N.pl3 258  ARG258      0.1354
    180  NH2        1.7780   24.3090   69.1120 N.pl3 258  ARG258      0.1354
    181  N          8.4680   16.7740   75.0720 N.3   304  GLN304     -0.1231
    182  CA         8.1290   18.0010   74.3470 C.3   304  GLN304      0.1698
    183  C          8.2160   19.2600   75.2080 C.2   304  GLN304      0.2592
    184  O          7.2020   19.8770   75.5420 O.2   304  GLN304     -0.2718
    185  CB         6.7250   17.8830   73.7500 C.3   304  GLN304      0.0381
    186  CG         6.6820   17.6880   72.2470 C.3   304  GLN304      0.0905
    187  CD         6.7580   16.2460   71.8230 C.2   304  GLN304      0.2608
    188  OE1        6.5260   15.9210   70.6580 O.2   304  GLN304     -0.2717
    189  NE2        7.0730   15.3640   72.7610 N.am  304  GLN304     -0.0878
    190  N          9.4350   19.6500   75.5500 N.am  305  LEU305     -0.1980
    191  CA         9.6490   20.7700   76.4420 C.3   305  LEU305      0.1596
    192  C         10.7890   21.6240   75.9420 C.2   305  LEU305      0.2287
    193  O         11.7220   21.1200   75.3160 O.2   305  LEU305     -0.2864
    194  CB         9.9510   20.2820   77.8590 C.3   305  LEU305      0.0297
    195  CG         8.9340   19.3730   78.5510 C.3   305  LEU305      0.0022
    196  CD1        9.5060   18.8520   79.8480 C.3   305  LEU305      0.0001
    197  CD2        7.6120   20.0940   78.8070 C.3   305  LEU305      0.0001
    198  N          9.0710   18.6170   85.1770 N.3   336  THR336     -0.1203
    199  CA         8.1060   19.4380   84.4530 C.3   336  THR336      0.1994
    200  C          7.0940   20.0950   85.4070 C.2   336  THR336      0.2617
    201  O          6.8170   19.5710   86.4900 O.2   336  THR336     -0.2717
    202  CB         7.3880   18.6230   83.3410 C.3   336  THR336      0.1784
    203  OG1        6.5200   19.4840   82.5910 O.3   336  THR336     -0.2211
    204  CG2        6.5790   17.4750   83.9360 C.3   336  THR336      0.0376
    205  N          6.5620   21.2470   85.0090 N.am  337  VAL337     -0.1979
    206  CA         5.4600   21.8640   85.7330 C.3   337  VAL337      0.1595
    207  C          4.2640   21.9880   84.7990 C.2   337  VAL337      0.2287
    208  O          4.4200   22.3520   83.6300 O.2   337  VAL337     -0.2864
    209  CB         5.8370   23.2650   86.2920 C.3   337  VAL337      0.0276
    210  CG1        4.5900   23.9910   86.8190 C.3   337  VAL337      0.0022
    211  CG2        6.8810   23.1510   87.3940 C.3   337  VAL337      0.0022
    212  N          1.0660   24.2690   84.6290 N.3   339  PHE339     -0.1241
    213  CA         0.6580   25.5040   85.2710 C.3   339  PHE339      0.1605
    214  C         -0.8490   25.6250   85.4430 C.2   339  PHE339      0.2264
    215  O         -1.4580   26.5830   84.9740 O.2   339  PHE339     -0.2867
    216  CB         1.2630   26.7160   84.5560 C.3   339  PHE339      0.0534
    217  CG         2.7500   26.8100   84.7200 C.ar  339  PHE339     -0.0203
    218  CD1        3.6050   26.3330   83.7260 C.ar  339  PHE339     -0.0042
    219  CD2        3.3050   27.3260   85.8930 C.ar  339  PHE339     -0.0042
    220  CE1        4.9970   26.3980   83.8750 C.ar  339  PHE339     -0.0003
    221  CE2        4.6980   27.3990   86.0530 C.ar  339  PHE339     -0.0003
    222  CZ         5.5420   26.9390   85.0390 C.ar  339  PHE339     -0.0000
@<TRIPOS>BOND
     1    20    19    2
     2    19    18    1
     3    17    18    1
     4    18    21    1
     5    13    12    2
     6    12    11    1
     7    21    22    1
     8    11    10    1
     9    11    14    1
    10    24    22    1
    11    22    23    1
    12    10    16    1
    13    14    15    1
    14    16    15    1
    15   148   149   ar
    16   148   146   ar
    17   151   149   ar
    18   151   153   ar
    19   149   147   ar
    20   146   145   ar
    21   172   173    2
    22   172   171    1
    23   153   152   ar
    24   136   135    2
    25   145   147   ar
    26   145   144    1
    27   147   150   ar
    28   171   174    1
    29   171   170    1
    30   152   150   ar
    31   135   134    1
    32   174   175    1
    33   144   141    1
    34   179   178    1
    35   180   178    1
    36   165   163    1
    37   169   168    2
    38   138   137    1
    39   178   177    2
    40   170   168   am
    41   168   167    1
    42   177   176    1
    43   134   137    1
    44   134   133    1
    45   137   139    1
    46   175   176    1
    47   162   161    2
    48   141   140    1
    49   141   142    1
    50   163   164    1
    51   163   160    1
    52   188   187    2
    53   143   142    2
    54   167   166    1
    55   161   166   am
    56   161   160    1
    57   133   130   am
    58   142   154   am
    59    32    30    1
    60   131   130    2
    61   160   159    1
    62   130   129    1
    63   159   156   am
    64   132   129    1
    65   187   186    1
    66   187   189   am
    67   154   155    1
    68   186   185    1
    69    31    29    1
    70   129   128    1
    71    30    29    1
    72    97    96    1
    73    29    26    1
    74   155   156    1
    75   155   158    1
    76   156   157    2
    77    98    96    1
    78    28    27    2
    79    96    95    1
    80   185   182    1
    81   128   119   am
    82   125   127   ar
    83   125   123   ar
    84    26    27    1
    85    26    25    1
    86    27    33   am
    87   182   181    1
    88   182   183    1
    89   120   119    2
    90   127   126   ar
    91   123   122   ar
    92   119   118    1
    93    65    63    1
    94    95    92    1
    95    63    62    1
    96   183   184    2
    97   183   190   am
    98   193   192    2
    99    33    34    1
   100    85    83    1
   101   190   191    1
   102    64    62    1
   103    34    35    1
   104   126   124   ar
   105    92    91    1
   106    92    93    1
   107   192   191    1
   108   122   124   ar
   109   122   121    1
   110   118   121    1
   111   118   117    1
   112    62    59    1
   113    91    88   am
   114   106   105   ar
   115   191   194    1
   116    83    84    1
   117    83    80    1
   118    35    36    2
   119    35    37   am
   120    82    81    2
   121    93    94    2
   122    93    99   am
   123    88    87    1
   124    88    89    2
   125    87    86    1
   126    87    90    1
   127    81    86   am
   128    81    80    1
   129    59    60    1
   130    59    58    1
   131   105   107   ar
   132   105   104    1
   133    66    60   am
   134    66    67    1
   135    37    38    1
   136   194   195    1
   137    60    61    2
   138    80    79    1
   139    99   100    1
   140    67    68    1
   141    58    48   am
   142     1     2    1
   143   116   114   am
   144    42    43    1
   145    42    39   am
   146   104   103    1
   147   195   197    1
   148   195   196    1
   149   115   114    2
   150    43    44    1
   151   114   113    1
   152     5     2    1
   153     5     6    1
   154   100   103    1
   155   100   101    1
   156    50    47    1
   157    50    51    1
   158     2     3    1
   159   113   112    1
   160    46    44   am
   161    46    47    1
   162    44    45    2
   163    38    39    1
   164    38    41    1
   165    48    47    1
   166    48    49    2
   167    39    40    2
   168    68    69    2
   169    53    51   ar
   170    53    55   ar
   171    51    52   ar
   172     6     7    1
   173    55    56   ar
   174     7     8    1
   175     9     8    1
   176    77    76   ar
   177   101   102    2
   178    52    54   ar
   179     3     4    2
   180   112   109    1
   181    56    54   ar
   182    56    57    1
   183    74    71    1
   184    74    75    1
   185    72    71    1
   186    72    73    2
   187    76    75    1
   188    76    78   ar
   189   108   109    1
   190    70    71    1
   191   109   110    1
   192   203   202    1
   193   110   111    2
   194   202   204    1
   195   202   199    1
   196   208   207    2
   197   218   220   ar
   198   218   217   ar
   199   220   222   ar
   200   199   198    1
   201   199   200    1
   202   216   217    1
   203   216   213    1
   204   212   213    1
   205   217   219   ar
   206   207   206    1
   207   215   214    2
   208   205   200   am
   209   205   206    1
   210   222   221   ar
   211   213   214    1
   212   200   201    2
   213   206   209    1
   214   219   221   ar
   215   209   210    1
   216   209   211    1
