@<TRIPOS>MOLECULE
tmp/2rafC00.pdb
 70 68 0 0 0
SMALL
GASTEIGER

@<TRIPOS>ATOM
      1  N         16.3110   41.6540   82.8070 N.3     8  GLY8       -0.1210
      2  CA        17.6700   41.2220   83.0160 C.3     8  GLY8        0.1956
      3  C         17.7560   40.0210   83.9240 C.2     8  GLY8        0.2611
      4  O         16.7420   39.4310   84.3160 O.2     8  GLY8       -0.2717
      5  N         18.9790   39.6780   84.3050 N.am    9  ASN9       -0.1974
      6  CA        19.2180   38.4940   85.1070 C.3     9  ASN9        0.1688
      7  C         18.5100   38.5440   86.4530 C.2     9  ASN9        0.2292
      8  O         17.9630   37.5380   86.9180 O.2     9  ASN9       -0.2864
      9  CB        20.7210   38.2570   85.3370 C.3     9  ASN9        0.1181
     10  CG        21.4860   38.0460   84.0390 C.2     9  ASN9        0.2629
     11  OD1       20.9930   37.3890   83.1120 O.2     9  ASN9       -0.2716
     12  ND2       22.6870   38.6150   83.9570 N.am    9  ASN9       -0.0877
     13  N         15.7600   40.4160   87.2690 N.3    10  GLY10      -0.1225
     14  CA        14.3310   40.3870   87.0120 C.3    10  GLY10       0.1811
     15  C         13.9030   38.9690   86.7530 C.2    10  GLY10       0.2280
     16  O         12.8730   38.4960   87.2770 O.2    10  GLY10      -0.2866
     17  N         13.1660   46.3150   88.6530 N.3    42  ALA42      -0.1231
     18  CA        14.4030   45.6330   88.3300 C.3    42  ALA42       0.1694
     19  C         15.1680   46.2780   87.1610 C.2    42  ALA42       0.2592
     20  O         15.5950   45.5600   86.2320 O.2    42  ALA42      -0.2718
     21  CB        14.1140   44.1020   88.1090 C.3    42  ALA42       0.0304
     22  N         15.3350   47.6120   87.2580 N.am   43  VAL43      -0.1966
     23  CA        16.0140   48.4610   86.2780 C.3    43  VAL43       0.1712
     24  C         17.2880   49.0640   86.8910 C.2    43  VAL43       0.2458
     25  O         17.4780   49.0410   88.1040 O.2    43  VAL43      -0.2730
     26  CB        15.1280   49.5750   85.6970 C.3    43  VAL43       0.0289
     27  CG1       13.8670   48.9590   85.0170 C.3    43  VAL43       0.0023
     28  CG2       14.7190   50.6590   86.7590 C.3    43  VAL43       0.0023
     29  N         18.2050   49.5430   86.0450 N.am   44  PRO44      -0.2716
     30  CA        19.3870   50.1810   86.6650 C.3    44  PRO44       0.1536
     31  C         19.0240   51.4060   87.4780 C.2    44  PRO44       0.2598
     32  O         18.0260   52.0630   87.1840 O.2    44  PRO44      -0.2715
     33  CB        20.2650   50.5650   85.4430 C.3    44  PRO44       0.0310
     34  CG        19.8300   49.5890   84.3690 C.3    44  PRO44       0.0237
     35  CD        18.3270   49.4170   84.5860 C.3    44  PRO44       0.0939
     36  N         19.8460   51.7210   88.4780 N.am   45  TYR45      -0.1974
     37  CA        19.5860   52.8660   89.3270 C.3    45  TYR45       0.1639
     38  C         19.2670   54.1270   88.5080 C.2    45  TYR45       0.2290
     39  O         18.2750   54.7530   88.8180 O.2    45  TYR45      -0.2864
     40  CB        20.7230   53.0940   90.3550 C.3    45  TYR45       0.0560
     41  CG        20.5580   54.3990   91.0260 C.ar   45  TYR45      -0.0198
     42  CD1       19.6390   54.5620   92.0660 C.ar   45  TYR45      -0.0009
     43  CD2       21.2240   55.5470   90.5890 C.ar   45  TYR45      -0.0009
     44  CE1       19.4500   55.7780   92.6430 C.ar   45  TYR45       0.0417
     45  CE2       21.0040   56.7780   91.1670 C.ar   45  TYR45       0.0417
     46  CZ        20.1250   56.9000   92.1970 C.ar   45  TYR45       0.1957
     47  OH        19.9250   58.1430   92.7840 O.3    45  TYR45      -0.2866
     48  N         15.4940   46.9390   94.1040 N.3    67  ILE67      -0.1231
     49  CA        16.5130   45.8800   94.2350 C.3    67  ILE67       0.1692
     50  C         17.9280   46.3800   93.9140 C.2    67  ILE67       0.2593
     51  O         18.8560   45.5890   93.8480 O.2    67  ILE67      -0.2718
     52  CB        16.2140   44.6930   93.2560 C.3    67  ILE67       0.0266
     53  CG1       16.4530   45.0450   91.7670 C.3    67  ILE67       0.0019
     54  CG2       14.7890   44.2330   93.4290 C.3    67  ILE67       0.0020
     55  CD1       16.3910   43.8290   90.7960 C.3    67  ILE67       0.0001
     56  N         18.0890   47.6900   93.6900 N.am   68  THR68      -0.1939
     57  CA        19.3460   48.1940   93.1680 C.3    68  THR68       0.2028
     58  C         20.5210   48.0900   94.1180 C.2    68  THR68       0.2642
     59  O         20.3670   48.1220   95.3190 O.2    68  THR68      -0.2714
     60  CB        19.2080   49.6950   92.7440 C.3    68  THR68       0.1808
     61  OG1       18.7870   50.4740   93.8660 O.3    68  THR68      -0.2208
     62  CG2       18.1980   49.8830   91.6070 C.3    68  THR68       0.0379
     63  N         21.7110   48.0200   93.5160 N.am   69  ASN69      -0.1971
     64  CA        22.9790   48.2340   94.2230 C.3    69  ASN69       0.1688
     65  C         23.5290   49.4370   93.4580 C.2    69  ASN69       0.2292
     66  O         24.1040   49.2340   92.3920 O.2    69  ASN69      -0.2864
     67  CB        23.9070   47.0530   94.1460 C.3    69  ASN69       0.1181
     68  CG        23.4820   45.9510   95.1010 C.2    69  ASN69       0.2629
     69  OD1       23.4500   46.1660   96.3030 O.2    69  ASN69      -0.2716
     70  ND2       23.1140   44.8010   94.5650 N.am   69  ASN69      -0.0877
@<TRIPOS>BOND
     1     1     2    1
     2     2     3    1
     3    11    10    2
     4     3     5   am
     5     3     4    2
     6    12    10   am
     7    10     9    1
     8     5     6    1
     9    34    35    1
    10    34    33    1
    11    35    29    1
    12    27    26    1
    13     6     9    1
    14     6     7    1
    15    33    30    1
    16    26    23    1
    17    26    28    1
    18    29    30    1
    19    29    24   am
    20    20    19    2
    21    23    24    1
    22    23    22    1
    23     7     8    2
    24    30    31    1
    25    15    14    1
    26    15    16    2
    27    24    25    2
    28    14    13    1
    29    19    22   am
    30    19    18    1
    31    32    31    2
    32    31    36   am
    33    21    18    1
    34    18    17    1
    35    36    37    1
    36    38    39    2
    37    38    37    1
    38    37    40    1
    39    40    41    1
    40    43    41   ar
    41    43    45   ar
    42    55    53    1
    43    41    42   ar
    44    45    46   ar
    45    62    60    1
    46    53    52    1
    47    42    44   ar
    48    46    44   ar
    49    46    47    1
    50    66    65    2
    51    60    57    1
    52    60    61    1
    53    57    56    1
    54    57    58    1
    55    52    54    1
    56    52    49    1
    57    65    64    1
    58    63    58   am
    59    63    64    1
    60    56    50   am
    61    51    50    2
    62    50    49    1
    63    48    49    1
    64    58    59    2
    65    67    64    1
    66    67    68    1
    67    70    68   am
    68    68    69    2
