@<TRIPOS>MOLECULE
tmp/2rafA00.pdb
 231 227 0 0 0
SMALL
GASTEIGER

@<TRIPOS>ATOM
      1  N         44.0820   87.1740   51.5740 N.3     5  PHE5       -0.1227
      2  CA        43.0250   88.1000   52.0670 C.3     5  PHE5        0.1736
      3  C         42.6510   87.5560   53.4200 C.2     5  PHE5        0.2596
      4  O         42.2660   86.3960   53.5060 O.2     5  PHE5       -0.2718
      5  CB        41.8290   88.1430   51.1610 C.3     5  PHE5        0.0547
      6  CG        42.0880   88.8850   49.8940 C.ar    5  PHE5       -0.0202
      7  CD1       42.1680   90.2710   49.9310 C.ar    5  PHE5       -0.0042
      8  CD2       42.2120   88.2470   48.6870 C.ar    5  PHE5       -0.0042
      9  CE1       42.4390   90.9930   48.7880 C.ar    5  PHE5       -0.0003
     10  CE2       42.4400   88.9640   47.5480 C.ar    5  PHE5       -0.0003
     11  CZ        42.5500   90.3640   47.6150 C.ar    5  PHE5       -0.0000
     12  N         42.8390   88.3880   54.4410 N.am    6  GLY6       -0.1942
     13  CA        42.6110   87.9920   55.8350 C.3     6  GLY6        0.2014
     14  C         43.9280   87.8520   56.5520 C.2     6  GLY6        0.2639
     15  O         44.7170   86.9810   56.2160 O.2     6  GLY6       -0.2714
     16  N         44.1750   88.7610   57.5030 N.am    7  LYS7       -0.1963
     17  CA        45.3640   88.8280   58.3320 C.3     7  LYS7        0.1728
     18  C         45.1520   88.2180   59.7130 C.2     7  LYS7        0.2617
     19  O         45.9250   88.4750   60.6300 O.2     7  LYS7       -0.2715
     20  CB        45.7750   90.2940   58.5180 C.3     7  LYS7        0.0311
     21  CG        46.2750   90.9700   57.2770 C.3     7  LYS7        0.0038
     22  CD        46.6850   92.4030   57.6130 C.3     7  LYS7        0.0206
     23  CE        47.4480   93.0510   56.5140 C.3     7  LYS7        0.1093
     24  NZ        47.7530   94.4820   56.8810 N.3     7  LYS7       -0.1314
     25  N         44.1180   87.3910   59.8480 N.am    8  GLY8       -0.1940
     26  CA        43.8040   86.7240   61.1030 C.3     8  GLY8        0.2014
     27  C         44.5880   85.4510   61.2720 C.2     8  GLY8        0.2638
     28  O         45.6390   85.2570   60.6610 O.2     8  GLY8       -0.2714
     29  N         44.0700   84.5700   62.1240 N.am    9  ASN9       -0.1972
     30  CA        44.8070   83.3790   62.5240 C.3     9  ASN9        0.1688
     31  C         45.1110   82.4170   61.3880 C.2     9  ASN9        0.2292
     32  O         46.2170   81.9310   61.2990 O.2     9  ASN9       -0.2864
     33  CB        44.0750   82.6720   63.6650 C.3     9  ASN9        0.1181
     34  CG        44.0760   83.5210   64.9320 C.2     9  ASN9        0.2629
     35  OD1       45.0970   84.1360   65.2570 O.2     9  ASN9       -0.2716
     36  ND2       42.9370   83.5700   65.6330 N.am    9  ASN9       -0.0877
     37  N         44.9680   83.1740   58.0380 N.3    10  GLY10      -0.1225
     38  CA        45.8140   83.8560   57.0570 C.3    10  GLY10       0.1811
     39  C         47.2720   83.8410   57.4390 C.2    10  GLY10       0.2280
     40  O         48.1700   83.4750   56.6210 O.2    10  GLY10      -0.2866
     41  N         46.4230   91.1660   52.8750 N.3    27  TYR27      -0.1227
     42  CA        45.4730   92.2840   52.8600 C.3    27  TYR27       0.1736
     43  C         44.3710   92.0130   53.8480 C.2    27  TYR27       0.2596
     44  O         43.6980   90.9910   53.7480 O.2    27  TYR27      -0.2718
     45  CB        44.8500   92.4950   51.4800 C.3    27  TYR27       0.0548
     46  CG        45.8780   92.7980   50.4310 C.ar   27  TYR27      -0.0200
     47  CD1       46.3710   94.0920   50.2510 C.ar   27  TYR27      -0.0009
     48  CD2       46.3710   91.7920   49.6420 C.ar   27  TYR27      -0.0009
     49  CE1       47.3100   94.3630   49.2760 C.ar   27  TYR27       0.0417
     50  CE2       47.3340   92.0440   48.6600 C.ar   27  TYR27       0.0417
     51  CZ        47.7970   93.3460   48.4910 C.ar   27  TYR27       0.1957
     52  OH        48.7640   93.5960   47.5330 O.3    27  TYR27      -0.2866
     53  N         44.1970   92.9190   54.8020 N.am   28  GLY28      -0.1942
     54  CA        43.1100   92.8490   55.7570 C.3    28  GLY28       0.2014
     55  C         41.8680   93.5360   55.2420 C.2    28  GLY28       0.2640
     56  O         41.8060   93.9610   54.0650 O.2    28  GLY28      -0.2714
     57  N         40.8720   93.6350   56.1340 N.am   29  SER29      -0.1935
     58  CA        39.5600   94.1790   55.7840 C.3    29  SER29       0.2055
     59  C         39.5880   95.6490   55.3810 C.2    29  SER29       0.2643
     60  O         38.7400   96.0580   54.5970 O.2    29  SER29      -0.2714
     61  CB        38.5540   94.0060   56.9280 C.3    29  SER29       0.2130
     62  OG        38.9410   94.7320   58.0810 O.3    29  SER29      -0.2179
     63  N         40.5520   96.4130   55.8960 N.am   30  LYS30      -0.1963
     64  CA        40.6880   97.8400   55.5520 C.3    30  LYS30       0.1728
     65  C         41.7500   98.1330   54.4760 C.2    30  LYS30       0.2616
     66  O         41.9960   99.3150   54.1670 O.2    30  LYS30      -0.2715
     67  CB        41.0010   98.6480   56.8240 C.3    30  LYS30       0.0311
     68  CG        40.0100   98.4290   57.9780 C.3    30  LYS30       0.0038
     69  CD        38.5270   98.6290   57.5820 C.3    30  LYS30       0.0206
     70  CE        37.5730   98.1550   58.7140 C.3    30  LYS30       0.1093
     71  NZ        36.1040   98.4120   58.4800 N.3    30  LYS30      -0.1314
     72  N         42.3400   97.0840   53.8740 N.am   31  ASP31      -0.1971
     73  CA        43.3850   97.1990   52.8530 C.3    31  ASP31       0.1709
     74  C         42.8300   96.8970   51.4640 C.2    31  ASP31       0.2293
     75  O         41.8460   96.1690   51.3450 O.2    31  ASP31      -0.2864
     76  CB        44.4900   96.1900   53.1590 C.3    31  ASP31       0.1436
     77  CG        45.0830   96.3760   54.5330 C.2    31  ASP31       0.3671
     78  OD1       45.2710   97.5580   54.9590 O.co2  31  ASP31      -0.2456
     79  OD2       45.4060   95.3400   55.1830 O.co2  31  ASP31      -0.2456
     80  N         41.1630   83.8520   53.1540 N.3    42  ALA42      -0.1231
     81  CA        41.2420   83.5430   54.6000 C.3    42  ALA42       0.1694
     82  C         40.3650   84.4770   55.4350 C.2    42  ALA42       0.2592
     83  O         40.7830   85.1040   56.3910 O.2    42  ALA42      -0.2718
     84  CB        42.7220   83.5700   55.0840 C.3    42  ALA42       0.0304
     85  N         39.1220   84.5090   55.0380 N.am   43  VAL43      -0.1966
     86  CA        38.1040   85.3900   55.5620 C.3    43  VAL43       0.1712
     87  C         36.8760   84.5750   56.0090 C.2    43  VAL43       0.2458
     88  O         36.7300   83.4180   55.5980 O.2    43  VAL43      -0.2730
     89  CB        37.6480   86.4060   54.4950 C.3    43  VAL43       0.0289
     90  CG1       38.8500   87.3240   54.0350 C.3    43  VAL43       0.0023
     91  CG2       36.9270   85.7170   53.3060 C.3    43  VAL43       0.0023
     92  N         36.0130   85.1730   56.8540 N.am   44  PRO44      -0.2716
     93  CA        34.7730   84.4900   57.2250 C.3    44  PRO44       0.1536
     94  C         33.8530   84.2180   56.0370 C.2    44  PRO44       0.2598
     95  O         33.7990   84.9880   55.0680 O.2    44  PRO44      -0.2715
     96  CB        34.1190   85.4940   58.1940 C.3    44  PRO44       0.0310
     97  CG        35.2290   86.2950   58.7240 C.3    44  PRO44       0.0237
     98  CD        36.1480   86.4510   57.5630 C.3    44  PRO44       0.0939
     99  N         33.1340   83.1080   56.0570 N.am   45  TYR45      -0.1974
    100  CA        32.2370   82.7880   54.9660 C.3    45  TYR45       0.1639
    101  C         31.3160   83.9600   54.5310 C.2    45  TYR45       0.2290
    102  O         31.1950   84.1860   53.3350 O.2    45  TYR45      -0.2864
    103  CB        31.3860   81.5320   55.2750 C.3    45  TYR45       0.0560
    104  CG        30.3200   81.3160   54.2420 C.ar   45  TYR45      -0.0198
    105  CD1       30.6080   80.7360   53.0170 C.ar   45  TYR45      -0.0009
    106  CD2       29.0300   81.7670   54.4510 C.ar   45  TYR45      -0.0009
    107  CE1       29.6430   80.5600   52.0400 C.ar   45  TYR45       0.0417
    108  CE2       28.0500   81.6280   53.4680 C.ar   45  TYR45       0.0417
    109  CZ        28.3530   81.0330   52.2720 C.ar   45  TYR45       0.1957
    110  OH        27.3730   80.9010   51.3330 O.3    45  TYR45      -0.2866
    111  N         31.8050   87.0250   54.3680 N.3    47  ALA47      -0.1245
    112  CA        32.6310   87.9700   53.5870 C.3    47  ALA47       0.1562
    113  C         33.0660   87.4630   52.2170 C.2    47  ALA47       0.2260
    114  O         33.4650   88.2650   51.3770 O.2    47  ALA47      -0.2867
    115  CB        33.8760   88.3490   54.3900 C.3    47  ALA47       0.0290
    116  N         33.9790   89.6910   48.6680 N.3    51  LEU51      -0.1245
    117  CA        35.3940   89.7630   48.3230 C.3    51  LEU51       0.1561
    118  C         35.6440   89.2710   46.8880 C.2    51  LEU51       0.2260
    119  O         36.3810   89.8770   46.1010 O.2    51  LEU51      -0.2867
    120  CB        36.2000   88.9230   49.3280 C.3    51  LEU51       0.0270
    121  CG        37.7210   88.9120   49.1260 C.3    51  LEU51       0.0019
    122  CD1       38.3300   90.2880   49.3540 C.3    51  LEU51       0.0001
    123  CD2       38.3180   87.9210   50.0950 C.3    51  LEU51       0.0001
    124  N         34.5510   91.9680   44.5490 N.3    54  GLN54      -0.1245
    125  CA        35.4570   93.0930   44.5610 C.3    54  GLN54       0.1566
    126  C         36.6320   92.8850   43.6030 C.2    54  GLN54       0.2260
    127  O         36.9880   93.7890   42.8650 O.2    54  GLN54      -0.2867
    128  CB        35.9670   93.3410   45.9720 C.3    54  GLN54       0.0367
    129  CG        36.9010   94.5320   46.1610 C.3    54  GLN54       0.0905
    130  CD        37.2960   94.7400   47.6240 C.2    54  GLN54       0.2608
    131  OE1       36.9140   93.9900   48.5210 O.2    54  GLN54      -0.2717
    132  NE2       38.0600   95.7990   47.8600 N.am   54  GLN54      -0.0878
    133  N         38.9590   78.4260   52.1750 N.3    67  ILE67      -0.1231
    134  CA        39.2990   77.7190   53.4080 C.3    67  ILE67       0.1692
    135  C         38.1400   77.6790   54.3820 C.2    67  ILE67       0.2593
    136  O         38.3350   77.1820   55.4770 O.2    67  ILE67      -0.2718
    137  CB        40.5250   78.3850   54.1400 C.3    67  ILE67       0.0266
    138  CG1       40.1370   79.7050   54.8530 C.3    67  ILE67       0.0019
    139  CG2       41.6690   78.6950   53.1730 C.3    67  ILE67       0.0020
    140  CD1       41.2590   80.2450   55.7240 C.3    67  ILE67       0.0001
    141  N         36.9590   78.1750   53.9810 N.am   68  THR68      -0.1939
    142  CA        35.8220   78.3820   54.9220 C.3    68  THR68       0.2028
    143  C         35.1640   77.1290   55.4560 C.2    68  THR68       0.2642
    144  O         35.1560   76.0800   54.7910 O.2    68  THR68      -0.2714
    145  CB        34.7130   79.2510   54.2810 C.3    68  THR68       0.1808
    146  OG1       34.1150   78.5870   53.1520 O.3    68  THR68      -0.2208
    147  CG2       35.2830   80.6170   53.9050 C.3    68  THR68       0.0379
    148  N         34.6760   77.2310   56.7040 N.am   69  ASN69      -0.1971
    149  CA        33.7790   76.2690   57.2880 C.3    69  ASN69       0.1688
    150  C         32.4930   77.0860   57.4200 C.2    69  ASN69       0.2292
    151  O         32.3950   77.9030   58.3320 O.2    69  ASN69      -0.2864
    152  CB        34.3010   75.7500   58.6370 C.3    69  ASN69       0.1181
    153  CG        35.4430   74.7720   58.4570 C.2    69  ASN69       0.2629
    154  OD1       35.2590   73.8010   57.7470 O.2    69  ASN69      -0.2716
    155  ND2       36.6080   75.0510   59.0310 N.am   69  ASN69      -0.0877
    156  N         26.6210   79.9380   62.6910 N.3    73  PHE73      -0.1241
    157  CA        27.2210   80.2390   63.9990 C.3    73  PHE73       0.1605
    158  C         26.2050   80.6350   65.0710 C.2    73  PHE73       0.2264
    159  O         26.5790   80.7340   66.2270 O.2    73  PHE73      -0.2867
    160  CB        28.3370   81.2920   63.8870 C.3    73  PHE73       0.0534
    161  CG        29.6230   80.7400   63.3130 C.ar   73  PHE73      -0.0203
    162  CD1       29.8490   80.7300   61.9240 C.ar   73  PHE73      -0.0042
    163  CD2       30.6110   80.2540   64.1540 C.ar   73  PHE73      -0.0042
    164  CE1       31.0390   80.2260   61.3840 C.ar   73  PHE73      -0.0003
    165  CE2       31.7870   79.7400   63.6380 C.ar   73  PHE73      -0.0003
    166  CZ        32.0150   79.7190   62.2460 C.ar   73  PHE73      -0.0000
    167  N         42.7130   73.6820   53.4850 N.3   104  PHE104     -0.1227
    168  CA        42.9350   74.1830   54.8400 C.3   104  PHE104      0.1736
    169  C         41.7380   74.2270   55.7790 C.2   104  PHE104      0.2595
    170  O         41.9170   74.5200   56.9600 O.2   104  PHE104     -0.2718
    171  CB        43.5680   75.6010   54.8220 C.3   104  PHE104      0.0547
    172  CG        44.8380   75.6990   54.0290 C.ar  104  PHE104     -0.0202
    173  CD1       45.9840   75.1330   54.5070 C.ar  104  PHE104     -0.0042
    174  CD2       44.9070   76.4830   52.8730 C.ar  104  PHE104     -0.0042
    175  CE1       47.1950   75.2650   53.8140 C.ar  104  PHE104     -0.0003
    176  CE2       46.0890   76.6310   52.1890 C.ar  104  PHE104     -0.0003
    177  CZ        47.2520   76.0160   52.6640 C.ar  104  PHE104     -0.0000
    178  N         40.5250   73.9260   55.3020 N.am  105  ASN105     -0.1974
    179  CA        39.3310   74.0330   56.1520 C.3   105  ASN105      0.1688
    180  C         39.3330   72.9140   57.2090 C.2   105  ASN105      0.2292
    181  O         38.6850   73.0570   58.2370 O.2   105  ASN105     -0.2864
    182  CB        38.0240   74.0290   55.3530 C.3   105  ASN105      0.1181
    183  CG        37.5760   72.6340   54.9940 C.2   105  ASN105      0.2629
    184  OD1       38.1480   71.9980   54.1020 O.2   105  ASN105     -0.2716
    185  ND2       36.5380   72.1360   55.7110 N.am  105  ASN105     -0.0877
    186  N         42.1950   71.8660   58.7770 N.3   107  THR107     -0.1203
    187  CA        43.4120   71.9910   59.5930 C.3   107  THR107      0.1994
    188  C         43.2580   73.1850   60.5140 C.2   107  THR107      0.2618
    189  O         43.2190   74.3350   60.0350 O.2   107  THR107     -0.2717
    190  CB        44.6430   72.1670   58.7210 C.3   107  THR107      0.1784
    191  OG1       44.4940   73.3020   57.8220 O.3   107  THR107     -0.2211
    192  CG2       44.9060   70.9150   57.9070 C.3   107  THR107      0.0376
    193  N         43.1890   72.9490   61.8320 N.am  108  PHE108     -0.1961
    194  CA        43.0720   74.0790   62.7590 C.3   108  PHE108      0.1771
    195  C         44.3350   74.9700   62.6200 C.2   108  PHE108      0.2619
    196  O         45.4530   74.4860   62.3400 O.2   108  PHE108     -0.2715
    197  CB        42.9560   73.6240   64.2170 C.3   108  PHE108      0.0574
    198  CG        41.6380   72.9550   64.6220 C.ar  108  PHE108     -0.0200
    199  CD1       40.4190   73.3750   64.1460 C.ar  108  PHE108     -0.0042
    200  CD2       41.6380   71.9620   65.6110 C.ar  108  PHE108     -0.0042
    201  CE1       39.2540   72.8040   64.5970 C.ar  108  PHE108     -0.0003
    202  CE2       40.4490   71.4240   66.0760 C.ar  108  PHE108     -0.0003
    203  CZ        39.2880   71.7960   65.5550 C.ar  108  PHE108     -0.0000
    204  N         44.1610   76.2690   62.8720 N.am  109  ALA109     -0.1977
    205  CA        45.2420   77.2580   62.6740 C.3   109  ALA109      0.1597
    206  C         46.5210   76.9290   63.4210 C.2   109  ALA109      0.2287
    207  O         47.5960   77.0200   62.8560 O.2   109  ALA109     -0.2864
    208  CB        44.7270   78.6590   63.0850 C.3   109  ALA109      0.0319
    209  N         34.9910   68.4050   63.1680 N.3   166  GLN166     -0.1245
    210  CA        36.1900   68.6990   63.9120 C.3   166  GLN166      0.1566
    211  C         35.9340   69.8450   64.9090 C.2   166  GLN166      0.2260
    212  O         36.3420   69.7470   66.0480 O.2   166  GLN166     -0.2867
    213  CB        37.3520   69.0760   62.9650 C.3   166  GLN166      0.0367
    214  CG        38.7500   68.8830   63.6090 C.3   166  GLN166      0.0905
    215  CD        39.8950   69.2610   62.7190 C.2   166  GLN166      0.2608
    216  OE1       40.9490   68.6140   62.7360 O.2   166  GLN166     -0.2717
    217  NE2       39.7270   70.3710   61.9500 N.am  166  GLN166     -0.0878
    218  N         41.8640   72.5160   70.4530 N.3   176  TRP176     -0.1241
    219  CA        42.0520   73.2950   69.2410 C.3   176  TRP176      0.1605
    220  C         43.4880   73.3050   68.6250 C.2   176  TRP176      0.2264
    221  O         43.6970   73.8940   67.5350 O.2   176  TRP176     -0.2867
    222  CB        41.5290   74.6770   69.5250 C.3   176  TRP176      0.0550
    223  CG        40.0900   74.6500   69.8230 C.ar  176  TRP176      0.0003
    224  CD1       39.4900   74.5200   71.0580 C.ar  176  TRP176      0.0946
    225  CD2       39.0290   74.7730   68.8790 C.ar  176  TRP176      0.0152
    226  NE1       38.1260   74.5660   70.9220 N.ar  176  TRP176     -0.2442
    227  CE2       37.8210   74.7310   69.5950 C.ar  176  TRP176      0.0810
    228  CE3       38.9820   74.9070   67.4830 C.ar  176  TRP176      0.0012
    229  CZ2       36.5870   74.8240   68.9730 C.ar  176  TRP176      0.0191
    230  CZ3       37.7330   74.9950   66.8610 C.ar  176  TRP176      0.0001
    231  CH2       36.5660   74.9690   67.6040 C.ar  176  TRP176      0.0015
@<TRIPOS>BOND
     1   127   126    2
     2   126   125    1
     3   124   125    1
     4   125   128    1
     5   128   129    1
     6   119   118    2
     7   129   130    1
     8   118   117    1
     9    52    51    1
    10    10    11   ar
    11    10     8   ar
    12    11     9   ar
    13   130   132   am
    14   130   131    2
    15   117   116    1
    16   117   120    1
    17    51    50   ar
    18    51    49   ar
    19    50    48   ar
    20     8     6   ar
    21     9     7   ar
    22   121   120    1
    23   121   122    1
    24   121   123    1
    25    49    47   ar
    26    48    46   ar
    27     6     7   ar
    28     6     5    1
    29    47    46   ar
    30    46    45    1
    31     5     2    1
    32   110   109    1
    33    75    74    2
    34   114   113    2
    35    74    73    1
    36    45    42    1
    37     1     2    1
    38   107   109   ar
    39   107   105   ar
    40     2     3    1
    41   133   134    1
    42   176   177   ar
    43   176   174   ar
    44   113   112    1
    45   109   108   ar
    46   177   175   ar
    47    73    76    1
    48    73    72    1
    49    42    41    1
    50    42    43    1
    51   174   172   ar
    52   105   104   ar
    53   146   145    1
    54    80    81    1
    55    76    77    1
    56   139   137    1
    57    91    89    1
    58   102   101    2
    59   134   137    1
    60   134   135    1
    61     3     4    2
    62     3    12   am
    63   108   106   ar
    64   167   168    1
    65   112   111    1
    66   112   115    1
    67    44    43    2
    68   175   173   ar
    69    43    53   am
    70    72    65   am
    71   147   145    1
    72   141   135   am
    73   141   142    1
    74   172   173   ar
    75   172   171    1
    76    90    89    1
    77    56    55    2
    78   184   183    2
    79   137   138    1
    80    66    65    2
    81   104   106   ar
    82   104   103    1
    83   145   142    1
    84   135   136    2
    85    12    13    1
    86    65    64    1
    87    89    86    1
    88   101   100    1
    89    77    78   ar
    90    77    79   ar
    91    60    59    2
    92    81    84    1
    93    81    82    1
    94   144   143    2
    95    53    54    1
    96   171   168    1
    97   168   169    1
    98   138   140    1
    99   142   143    1
   100   100   103    1
   101   100    99    1
   102   183   182    1
   103   183   185   am
   104    85    82   am
   105    85    86    1
   106    95    94    2
   107    55    54    1
   108    55    57   am
   109   178   169   am
   110   178   179    1
   111   182   179    1
   112    59    58    1
   113    59    63   am
   114    82    83    2
   115   143   148   am
   116    64    63    1
   117    64    67    1
   118    86    87    1
   119    88    87    2
   120   169   170    2
   121    58    57    1
   122    58    61    1
   123    13    14    1
   124    87    92   am
   125    94    99   am
   126    94    93    1
   127   179   180    1
   128    15    14    2
   129    23    24    1
   130    23    22    1
   131    14    16   am
   132    40    39    2
   133   148   149    1
   134    67    68    1
   135    92    93    1
   136    92    98    1
   137    61    62    1
   138    38    39    1
   139    38    37    1
   140   180   181    2
   141    93    96    1
   142    21    22    1
   143    21    20    1
   144   149   150    1
   145   149   152    1
   146   150   151    2
   147    16    17    1
   148    98    97    1
   149    69    68    1
   150    69    70    1
   151   154   153    2
   152   191   190    1
   153   192   190    1
   154    96    97    1
   155    17    20    1
   156    17    18    1
   157   153   152    1
   158   153   155   am
   159    71    70    1
   160   190   187    1
   161   186   187    1
   162   187   188    1
   163    18    25   am
   164    18    19    2
   165    25    26    1
   166   189   188    2
   167   188   193   am
   168    28    27    2
   169    26    27    1
   170    27    29   am
   171    32    31    2
   172   164   162   ar
   173   164   166   ar
   174    31    30    1
   175   193   194    1
   176   162   161   ar
   177   217   215   am
   178    29    30    1
   179   166   165   ar
   180   196   195    2
   181    30    33    1
   182   195   194    1
   183   195   204   am
   184   205   204    1
   185   205   208    1
   186   205   206    1
   187   156   157    1
   188   215   216    2
   189   215   214    1
   190   194   197    1
   191   207   206    2
   192   213   214    1
   193   213   210    1
   194   209   210    1
   195   161   160    1
   196   161   163   ar
   197   165   163   ar
   198    33    34    1
   199   160   157    1
   200   210   211    1
   201   157   158    1
   202   199   201   ar
   203   199   198   ar
   204   197   198    1
   205   201   203   ar
   206   198   200   ar
   207   211   212    2
   208    34    35    2
   209    34    36   am
   210   158   159    2
   211   203   202   ar
   212   200   202   ar
   213   230   228   ar
   214   230   231   ar
   215   228   225   ar
   216   221   220    2
   217   231   229   ar
   218   220   219    1
   219   225   227   ar
   220   225   223   ar
   221   229   227   ar
   222   219   222    1
   223   219   218    1
   224   222   223    1
   225   227   226   ar
   226   223   224   ar
   227   226   224   ar
