@<TRIPOS>MOLECULE
tmp/2rahA00.pdb
 188 174 0 0 0
SMALL
GASTEIGER

@<TRIPOS>ATOM
      1  N          2.9510  -30.9270   20.9460 N.3    51  ARG51      -0.1245
      2  CA         3.0710  -29.5170   21.3060 C.3    51  ARG51       0.1563
      3  C          2.3240  -28.6340   20.3200 C.2    51  ARG51       0.2260
      4  O          1.5580  -27.7660   20.7220 O.2    51  ARG51      -0.2867
      5  CB         4.5310  -29.0760   21.4290 C.3    51  ARG51       0.0307
      6  CG         5.2720  -29.6860   22.6020 C.3    51  ARG51       0.0489
      7  CD         6.7890  -29.4580   22.4210 C.3    51  ARG51       0.2205
      8  NE         7.5280  -30.2300   23.4100 N.pl3  51  ARG51      -0.0865
      9  CZ         7.9210  -31.4860   23.2330 C.cat  51  ARG51       0.5346
     10  NH1        7.6740  -32.1160   22.0950 N.pl3  51  ARG51       0.1354
     11  NH2        8.5780  -32.1030   24.2050 N.pl3  51  ARG51       0.1354
     12  N         10.8340  -27.0650   18.8210 N.3    87  GLN87      -0.1245
     13  CA        11.2590  -28.3560   19.3390 C.3    87  GLN87       0.1566
     14  C         12.3180  -28.9820   18.4260 C.2    87  GLN87       0.2260
     15  O         13.2850  -29.5600   18.9080 O.2    87  GLN87      -0.2867
     16  CB        10.0420  -29.2830   19.5130 C.3    87  GLN87       0.0367
     17  CG        10.3680  -30.7700   19.5960 C.3    87  GLN87       0.0905
     18  CD        10.7520  -31.2090   20.9770 C.2    87  GLN87       0.2608
     19  OE1       11.0240  -30.3890   21.8560 O.2    87  GLN87      -0.2717
     20  NE2       10.7800  -32.5210   21.1880 N.am   87  GLN87      -0.0878
     21  N         15.6530  -27.2720   19.1030 N.3    90  PHE90      -0.1227
     22  CA        16.2870  -27.7630   20.3160 C.3    90  PHE90       0.1736
     23  C         16.7930  -29.2030   20.2010 C.2    90  PHE90       0.2595
     24  O         17.8590  -29.5290   20.7310 O.2    90  PHE90      -0.2718
     25  CB        15.3440  -27.6590   21.5130 C.3    90  PHE90       0.0547
     26  CG        15.0850  -26.2480   21.9620 C.ar   90  PHE90      -0.0202
     27  CD1       13.7920  -25.7720   22.0830 C.ar   90  PHE90      -0.0042
     28  CD2       16.1380  -25.4070   22.2750 C.ar   90  PHE90      -0.0042
     29  CE1       13.5530  -24.4690   22.5000 C.ar   90  PHE90      -0.0003
     30  CE2       15.9040  -24.1030   22.6930 C.ar   90  PHE90      -0.0003
     31  CZ        14.6120  -23.6410   22.8010 C.ar   90  PHE90      -0.0000
     32  N         16.0440  -30.0650   19.5230 N.am   91  LEU91      -0.1980
     33  CA        16.4090  -31.4780   19.4100 C.3    91  LEU91       0.1596
     34  C         17.6830  -31.6670   18.5950 C.2    91  LEU91       0.2287
     35  O         18.5810  -32.3900   18.9910 O.2    91  LEU91      -0.2864
     36  CB        15.2890  -32.2780   18.7380 C.3    91  LEU91       0.0297
     37  CG        13.9510  -32.5230   19.4390 C.3    91  LEU91       0.0022
     38  CD1       13.1250  -33.5080   18.6300 C.3    91  LEU91       0.0001
     39  CD2       14.1600  -33.0720   20.8380 C.3    91  LEU91       0.0001
     40  N         20.6110  -30.2930   20.6810 N.3    94  ASP94      -0.1239
     41  CA        20.8070  -31.0580   21.9010 C.3    94  ASP94       0.1674
     42  C         21.3470  -32.4620   21.5970 C.2    94  ASP94       0.2266
     43  O         22.1090  -33.0120   22.3970 O.2    94  ASP94      -0.2867
     44  CB        19.5100  -31.1580   22.7070 C.3    94  ASP94       0.1410
     45  CG        19.0880  -29.8320   23.3230 C.2    94  ASP94       0.3668
     46  OD1       19.8040  -28.8160   23.1690 O.co2  94  ASP94      -0.2456
     47  OD2       18.0230  -29.8050   23.9730 O.co2  94  ASP94      -0.2456
     48  N         24.6470  -33.8200   23.2730 N.3    98  ASP98      -0.1239
     49  CA        24.4440  -34.9610   24.1660 C.3    98  ASP98       0.1674
     50  C         25.1360  -36.1990   23.5840 C.2    98  ASP98       0.2266
     51  O         25.0760  -37.2760   24.1710 O.2    98  ASP98      -0.2867
     52  CB        22.9460  -35.2560   24.3480 C.3    98  ASP98       0.1410
     53  CG        22.2320  -34.2470   25.2590 C.2    98  ASP98       0.3668
     54  OD1       22.9060  -33.4870   25.9940 O.co2  98  ASP98      -0.2456
     55  OD2       20.9760  -34.2150   25.2410 O.co2  98  ASP98      -0.2456
     56  N         16.9580  -40.5200   17.0730 N.3   103  ARG103     -0.1245
     57  CA        15.9020  -39.6230   17.5100 C.3   103  ARG103      0.1563
     58  C         14.6820  -39.9180   16.6320 C.2   103  ARG103      0.2260
     59  O         14.7940  -40.0110   15.4060 O.2   103  ARG103     -0.2867
     60  CB        16.4070  -38.1720   17.3760 C.3   103  ARG103      0.0307
     61  CG        15.3640  -37.0570   17.3420 C.3   103  ARG103      0.0489
     62  CD        14.8070  -36.7320   18.7070 C.3   103  ARG103      0.2205
     63  NE        15.8110  -36.2510   19.6440 N.pl3 103  ARG103     -0.0865
     64  CZ        15.5520  -36.0220   20.9250 C.cat 103  ARG103      0.5346
     65  NH1       14.3230  -36.2220   21.3920 N.pl3 103  ARG103      0.1354
     66  NH2       16.5030  -35.5840   21.7410 N.pl3 103  ARG103      0.1354
     67  N         14.2760  -21.7100   27.8640 N.3   158  THR158     -0.1218
     68  CA        14.7130  -23.0760   27.5760 C.3   158  THR158      0.1862
     69  C         16.2540  -23.1770   27.5690 C.2   158  THR158      0.2287
     70  O         16.8300  -24.1420   28.0840 O.2   158  THR158     -0.2866
     71  CB        14.1140  -23.6130   26.2490 C.3   158  THR158      0.1770
     72  OG1       12.6760  -23.6300   26.3370 O.3   158  THR158     -0.2211
     73  CG2       14.5740  -25.0370   26.0130 C.3   158  THR158      0.0375
     74  N         18.7490  -25.4000   29.9690 N.3   162  GLN162     -0.1245
     75  CA        19.8040  -26.2440   29.4140 C.3   162  GLN162      0.1566
     76  C         21.2080  -25.9120   29.9460 C.2   162  GLN162      0.2260
     77  O         22.0120  -26.8000   30.2230 O.2   162  GLN162     -0.2867
     78  CB        19.7540  -26.1710   27.8880 C.3   162  GLN162      0.0367
     79  CG        18.4430  -26.7530   27.3560 C.3   162  GLN162      0.0905
     80  CD        18.4470  -26.9450   25.8640 C.2   162  GLN162      0.2608
     81  OE1       19.1560  -26.2460   25.1490 O.2   162  GLN162     -0.2717
     82  NE2       17.6480  -27.8940   25.3820 N.am  162  GLN162     -0.0878
     83  N         21.2790  -27.5210   33.2760 N.3   165  ASP165     -0.1239
     84  CA        21.4420  -28.9580   33.0660 C.3   165  ASP165      0.1674
     85  C         22.9190  -29.3010   32.7980 C.2   165  ASP165      0.2266
     86  O         23.4850  -30.1790   33.4440 O.2   165  ASP165     -0.2867
     87  CB        20.5600  -29.3920   31.8930 C.3   165  ASP165      0.1410
     88  CG        20.0230  -30.8150   32.0310 C.2   165  ASP165      0.3668
     89  OD1       20.0720  -31.4330   33.1250 O.co2 165  ASP165     -0.2456
     90  OD2       19.5430  -31.3200   31.0030 O.co2 165  ASP165     -0.2456
     91  N         14.0640  -25.7500   31.3900 N.3   191  LYS191     -0.1231
     92  CA        14.4350  -26.4510   30.1550 C.3   191  LYS191      0.1693
     93  C         13.2510  -27.1050   29.4760 C.2   191  LYS191      0.2592
     94  O         13.2730  -27.3650   28.2690 O.2   191  LYS191     -0.2718
     95  CB        15.5820  -27.4550   30.3770 C.3   191  LYS191      0.0285
     96  CG        15.1780  -28.8350   30.8770 C.3   191  LYS191      0.0035
     97  CD        16.2280  -29.8770   30.5110 C.3   191  LYS191      0.0206
     98  CE        15.8910  -31.2610   31.0910 C.3   191  LYS191      0.1093
     99  NZ        16.7950  -32.3360   30.5430 N.3   191  LYS191     -0.1314
    100  N         12.1880  -27.3600   30.2330 N.am  192  THR192     -0.1953
    101  CA        11.0920  -28.1280   29.6540 C.3   192  THR192      0.1897
    102  C          9.7020  -27.5210   29.8380 C.2   192  THR192      0.2313
    103  O          8.9250  -27.4430   28.8980 O.2   192  THR192     -0.2863
    104  CB        11.1360  -29.5850   30.1370 C.3   192  THR192      0.1794
    105  OG1       12.2620  -30.2180   29.5290 O.3   192  THR192     -0.2208
    106  CG2        9.8640  -30.3200   29.7470 C.3   192  THR192      0.0378
    107  N          8.4390  -24.2190   27.5580 N.3   195  TYR195     -0.1241
    108  CA         8.2010  -24.3420   26.1200 C.3   195  TYR195      0.1605
    109  C          7.2760  -25.4900   25.7290 C.2   195  TYR195      0.2264
    110  O          6.6350  -25.4510   24.6810 O.2   195  TYR195     -0.2867
    111  CB         9.5100  -24.4300   25.3110 C.3   195  TYR195      0.0534
    112  CG         9.9970  -25.8380   24.9960 C.ar  195  TYR195     -0.0201
    113  CD1        9.7810  -26.4220   23.7500 C.ar  195  TYR195     -0.0009
    114  CD2       10.6920  -26.5790   25.9450 C.ar  195  TYR195     -0.0009
    115  CE1       10.2480  -27.7140   23.4790 C.ar  195  TYR195      0.0417
    116  CE2       11.1440  -27.8640   25.6820 C.ar  195  TYR195      0.0417
    117  CZ        10.9250  -28.4200   24.4550 C.ar  195  TYR195      0.1957
    118  OH        11.3910  -29.6970   24.2140 O.3   195  TYR195     -0.2866
    119  N          6.1560  -34.1010   33.2200 N.3   230  PHE230     -0.1227
    120  CA         6.4780  -34.6010   31.8990 C.3   230  PHE230      0.1736
    121  C          7.9740  -34.8860   31.7810 C.2   230  PHE230      0.2595
    122  O          8.3740  -35.8670   31.1410 O.2   230  PHE230     -0.2718
    123  CB         6.0480  -33.6060   30.8250 C.3   230  PHE230      0.0547
    124  CG         6.2960  -34.0810   29.4170 C.ar  230  PHE230     -0.0202
    125  CD1        5.4440  -34.9990   28.8190 C.ar  230  PHE230     -0.0042
    126  CD2        7.3800  -33.6060   28.6900 C.ar  230  PHE230     -0.0042
    127  CE1        5.6590  -35.4400   27.5130 C.ar  230  PHE230     -0.0003
    128  CE2        7.6060  -34.0400   27.3800 C.ar  230  PHE230     -0.0003
    129  CZ         6.7450  -34.9590   26.7920 C.ar  230  PHE230     -0.0000
    130  N          8.7980  -34.0380   32.3920 N.am  231  GLN231     -0.1979
    131  CA        10.2510  -34.1990   32.2690 C.3   231  GLN231      0.1601
    132  C         10.6870  -35.3760   33.1200 C.2   231  GLN231      0.2287
    133  O         11.5520  -36.1610   32.7150 O.2   231  GLN231     -0.2864
    134  CB        11.0080  -32.9490   32.7290 C.3   231  GLN231      0.0394
    135  CG        12.5250  -33.0440   32.4650 C.3   231  GLN231      0.0908
    136  CD        12.8450  -33.4010   31.0250 C.2   231  GLN231      0.2608
    137  OE1       12.4850  -32.6760   30.0890 O.2   231  GLN231     -0.2717
    138  NE2       13.5260  -34.5240   30.8340 N.am  231  GLN231     -0.0878
    139  N          9.9170  -38.3460   31.1710 N.3   234  ASP234     -0.1225
    140  CA        10.9030  -38.4580   30.1040 C.3   234  ASP234      0.1805
    141  C         12.2270  -39.0330   30.6440 C.2   234  ASP234      0.2597
    142  O         12.8670  -39.8640   29.9970 O.2   234  ASP234     -0.2718
    143  CB        11.1050  -37.0950   29.4210 C.3   234  ASP234      0.1424
    144  CG        12.2310  -37.1120   28.4020 C.2   234  ASP234      0.3668
    145  OD1       11.9570  -37.3180   27.2010 O.co2 234  ASP234     -0.2456
    146  OD2       13.3940  -36.9190   28.8050 O.co2 234  ASP234     -0.2456
    147  N         12.6220  -38.6110   31.8390 N.am  235  ASP235     -0.1974
    148  CA        13.7840  -39.1830   32.5180 C.3   235  ASP235      0.1709
    149  C         13.6140  -40.6860   32.7880 C.2   235  ASP235      0.2293
    150  O         14.4700  -41.5030   32.4400 O.2   235  ASP235     -0.2864
    151  CB        14.0200  -38.4650   33.8520 C.3   235  ASP235      0.1436
    152  CG        14.5560  -37.0430   33.6870 C.2   235  ASP235      0.3671
    153  OD1       14.8090  -36.5850   32.5520 O.co2 235  ASP235     -0.2456
    154  OD2       14.7310  -36.3740   34.7260 O.co2 235  ASP235     -0.2456
    155  N         13.8770  -42.6420   29.7450 N.3   238  ASP238     -0.1239
    156  CA        15.2120  -42.6320   29.1660 C.3   238  ASP238      0.1674
    157  C         15.8880  -43.9760   29.4130 C.2   238  ASP238      0.2266
    158  O         16.5390  -44.5110   28.5210 O.2   238  ASP238     -0.2867
    159  CB        16.0600  -41.5220   29.7790 C.3   238  ASP238      0.1410
    160  CG        17.3280  -41.2690   28.9910 C.2   238  ASP238      0.3668
    161  OD1       17.2430  -40.6300   27.9220 O.co2 238  ASP238     -0.2456
    162  OD2       18.4050  -41.7100   29.4390 O.co2 238  ASP238     -0.2456
    163  N         14.1940  -43.3850   20.6060 N.3   248  LYS248     -0.1245
    164  CA        15.5910  -43.0320   20.8210 C.3   248  LYS248      0.1561
    165  C         16.1960  -43.8600   21.9400 C.2   248  LYS248      0.2260
    166  O         15.4840  -44.4330   22.7690 O.2   248  LYS248     -0.2867
    167  CB        15.7320  -41.5440   21.1440 C.3   248  LYS248      0.0271
    168  CG        15.1900  -41.1550   22.5020 C.3   248  LYS248      0.0035
    169  CD        15.8740  -39.9020   23.0240 C.3   248  LYS248      0.0206
    170  CE        15.2150  -39.4140   24.3010 C.3   248  LYS248      0.1093
    171  NZ        13.7810  -39.0670   24.0680 N.3   248  LYS248     -0.1314
    172  N         21.2160  -40.7720   29.5810 N.3   252  ASP252     -0.1239
    173  CA        21.2980  -39.9410   30.7820 C.3   252  ASP252      0.1674
    174  C         22.4060  -40.3810   31.7390 C.2   252  ASP252      0.2266
    175  O         23.1330  -39.5580   32.3050 O.2   252  ASP252     -0.2867
    176  CB        19.9590  -39.9170   31.5230 C.3   252  ASP252      0.1410
    177  CG        18.9320  -39.0110   30.8590 C.2   252  ASP252      0.3668
    178  OD1       17.7690  -39.0140   31.3360 O.co2 252  ASP252     -0.2456
    179  OD2       19.2800  -38.3040   29.8780 O.co2 252  ASP252     -0.2456
    180  N         23.8850  -37.0430   33.7350 N.3   257  LYS257     -0.1245
    181  CA        22.7750  -36.0920   33.8750 C.3   257  LYS257      0.1561
    182  C         22.2180  -36.1260   35.2810 C.2   257  LYS257      0.2260
    183  O         22.1610  -37.1830   35.8990 O.2   257  LYS257     -0.2867
    184  CB        21.6420  -36.4120   32.8870 C.3   257  LYS257      0.0271
    185  CG        21.9520  -36.0600   31.4400 C.3   257  LYS257      0.0035
    186  CD        22.3300  -34.5990   31.2820 C.3   257  LYS257      0.0206
    187  CE        22.0960  -34.1110   29.8560 C.3   257  LYS257      0.1093
    188  NZ        20.6640  -33.7070   29.6310 N.3   257  LYS257     -0.1314
@<TRIPOS>BOND
     1    59    58    2
     2    58    57    1
     3    56    57    1
     4    61    60    1
     5    61    62    1
     6    60    57    1
     7    14    15    2
     8    14    13    1
     9    34    35    2
    10    34    33    1
    11    38    37    1
    12    62    63    1
    13    36    33    1
    14    36    37    1
    15    12    13    1
    16    21    22    1
    17    13    16    1
    18    33    32    1
    19    37    39    1
    20    16    17    1
    21    32    23   am
    22    17    18    1
    23    63    64    2
    24    23    22    1
    25    23    24    2
    26    22    25    1
    27     3     4    2
    28     3     2    1
    29   163   164    1
    30    40    41    1
    31   164   167    1
    32   164   165    1
    33    64    65    1
    34    64    66    1
    35     1     2    1
    36    18    20   am
    37    18    19    2
    38   167   168    1
    39     2     5    1
    40     5     6    1
    41    25    26    1
    42    42    41    1
    43    42    43    2
    44    41    44    1
    45   165   166    2
    46    26    27   ar
    47    26    28   ar
    48    27    29   ar
    49    10     9    1
    50    28    30   ar
    51     7     6    1
    52     7     8    1
    53    29    31   ar
    54   168   169    1
    55    30    31   ar
    56    44    45    1
    57   169   170    1
    58    46    45   ar
    59     9     8    2
    60     9    11    1
    61    48    49    1
    62    45    47   ar
    63   115   113   ar
    64   115   117   ar
    65    50    49    1
    66    50    51    2
    67   113   112   ar
    68   171   170    1
    69    49    52    1
    70   118   117    1
    71    52    53    1
    72   117   116   ar
    73   110   109    2
    74   112   111    1
    75   112   114   ar
    76    81    80    2
    77    55    53   ar
    78    53    54   ar
    79   111   108    1
    80    82    80   am
    81   116   114   ar
    82   109   108    1
    83    80    79    1
    84    73    71    1
    85   108   107    1
    86    71    72    1
    87    71    68    1
    88   129   128   ar
    89   129   127   ar
    90   145   144   ar
    91    79    78    1
    92   128   126   ar
    93   127   125   ar
    94    69    68    1
    95    69    70    2
    96    68    67    1
    97    78    75    1
    98   161   160   ar
    99    94    93    2
   100   144   146   ar
   101   144   143    1
   102   158   157    2
   103   126   124   ar
   104   125   124   ar
   105   103   102    2
   106   160   162   ar
   107   160   159    1
   108   156   157    1
   109   156   155    1
   110   156   159    1
   111    75    76    1
   112    75    74    1
   113   124   123    1
   114   143   140    1
   115    93    92    1
   116    93   100   am
   117   105   104    1
   118   172   173    1
   119   188   187    1
   120   101   102    1
   121   101   104    1
   122   101   100    1
   123   106   104    1
   124   187   186    1
   125   179   177   ar
   126    76    77    2
   127   142   141    2
   128   137   136    2
   129   140   141    1
   130   140   139    1
   131    92    95    1
   132    92    91    1
   133    95    96    1
   134    97    96    1
   135    97    98    1
   136    99    98    1
   137   141   147   am
   138   173   176    1
   139   173   174    1
   140   123   120    1
   141   138   136   am
   142   177   178   ar
   143   177   176    1
   144    90    88   ar
   145   136   135    1
   146   122   121    2
   147   186   185    1
   148   185   184    1
   149   174   175    2
   150   121   120    1
   151   121   130   am
   152   147   148    1
   153    87    88    1
   154    87    84    1
   155   120   119    1
   156    88    89   ar
   157   131   130    1
   158   131   134    1
   159   131   132    1
   160   150   149    2
   161   135   134    1
   162   148   149    1
   163   148   151    1
   164   153   152   ar
   165   133   132    2
   166    85    84    1
   167    85    86    2
   168   184   181    1
   169    84    83    1
   170   152   151    1
   171   152   154   ar
   172   180   181    1
   173   181   182    1
   174   182   183    2
