@<TRIPOS>MOLECULE
tmp/2rakA00.pdb
 111 107 0 0 0
SMALL
GASTEIGER

@<TRIPOS>ATOM
      1  N          9.0670   33.5640   25.5540 N.3    56  TYR56      -0.1227
      2  CA         9.4790   33.3640   24.1670 C.3    56  TYR56       0.1736
      3  C         10.9890   33.1460   24.0500 C.2    56  TYR56       0.2595
      4  O         11.7700   33.7260   24.8110 O.2    56  TYR56      -0.2718
      5  CB         9.1260   34.5960   23.3560 C.3    56  TYR56       0.0548
      6  CG         9.6800   35.8470   23.9880 C.ar   56  TYR56      -0.0200
      7  CD1        9.0440   36.4350   25.0760 C.ar   56  TYR56      -0.0009
      8  CD2       10.8610   36.4220   23.5260 C.ar   56  TYR56      -0.0009
      9  CE1        9.5660   37.5620   25.6890 C.ar   56  TYR56       0.0417
     10  CE2       11.3950   37.5520   24.1360 C.ar   56  TYR56       0.0417
     11  CZ        10.7410   38.1160   25.2170 C.ar   56  TYR56       0.1957
     12  OH        11.2650   39.2270   25.8390 O.3    56  TYR56      -0.2866
     13  N         11.3930   32.3270   23.0810 N.am   57  ILE57      -0.1980
     14  CA        12.8080   32.0550   22.8500 C.3    57  ILE57       0.1595
     15  C         13.4270   33.2550   22.1350 C.2    57  ILE57       0.2287
     16  O         12.7740   33.9180   21.3290 O.2    57  ILE57      -0.2864
     17  CB        13.0090   30.7840   21.9800 C.3    57  ILE57       0.0276
     18  CG1       12.6130   29.5300   22.7630 C.3    57  ILE57       0.0022
     19  CG2       14.4560   30.6940   21.5180 C.3    57  ILE57       0.0022
     20  CD1       13.5560   29.1810   23.8820 C.3    57  ILE57       0.0001
     21  N         13.9670   37.7380   19.0660 N.3    73  ARG73      -0.1231
     22  CA        13.0290   36.6220   19.1920 C.3    73  ARG73       0.1694
     23  C         12.5450   36.3490   17.7610 C.2    73  ARG73       0.2592
     24  O         12.6940   37.2100   16.8910 O.2    73  ARG73      -0.2718
     25  CB        11.8550   37.0240   20.0890 C.3    73  ARG73       0.0321
     26  CG        11.1120   38.2370   19.5570 C.3    73  ARG73       0.0489
     27  CD        10.1300   38.7970   20.5560 C.3    73  ARG73       0.2205
     28  NE         9.1140   37.8280   20.9570 N.pl3  73  ARG73      -0.0865
     29  CZ         8.0340   38.1510   21.6600 C.cat  73  ARG73       0.5346
     30  NH1        7.8470   39.4110   22.0270 N.pl3  73  ARG73       0.1354
     31  NH2        7.1420   37.2280   21.9880 N.pl3  73  ARG73       0.1354
     32  N         11.9700   35.1740   17.5060 N.am   74  TYR74      -0.1962
     33  CA        11.5100   34.8600   16.1520 C.3    74  TYR74       0.1771
     34  C         10.6000   35.9280   15.5660 C.2    74  TYR74       0.2619
     35  O         10.7210   36.3000   14.3960 O.2    74  TYR74      -0.2715
     36  CB        10.7570   33.5410   16.1220 C.3    74  TYR74       0.0574
     37  CG        10.3830   33.1520   14.7140 C.ar   74  TYR74      -0.0198
     38  CD1       11.2540   32.4090   13.9190 C.ar   74  TYR74      -0.0009
     39  CD2        9.1950   33.5970   14.1460 C.ar   74  TYR74      -0.0009
     40  CE1       10.9510   32.1270   12.5920 C.ar   74  TYR74       0.0417
     41  CE2        8.8830   33.3230   12.8260 C.ar   74  TYR74       0.0417
     42  CZ         9.7640   32.5900   12.0480 C.ar   74  TYR74       0.1957
     43  OH         9.4610   32.3440   10.7260 O.3    74  TYR74      -0.2866
     44  N          9.6720   36.3920   16.3890 N.am   75  LYS75      -0.1977
     45  CA         8.7070   37.4130   16.0050 C.3    75  LYS75       0.1596
     46  C          9.3310   38.6410   15.3460 C.2    75  LYS75       0.2287
     47  O          8.6920   39.3060   14.5420 O.2    75  LYS75      -0.2864
     48  CB         7.9170   37.8150   17.2480 C.3    75  LYS75       0.0298
     49  CG         7.0690   39.0550   17.1110 C.3    75  LYS75       0.0038
     50  CD         6.1930   39.2430   18.3520 C.3    75  LYS75       0.0206
     51  CE         5.2640   38.0300   18.5890 C.3    75  LYS75       0.1093
     52  NZ         4.2440   38.2830   19.6600 N.3    75  LYS75      -0.1314
     53  N         10.2990   37.8070   11.6910 N.3    78  ASP78      -0.1239
     54  CA         9.0800   37.8670   10.8950 C.3    78  ASP78       0.1674
     55  C          8.8490   39.3430   10.5330 C.2    78  ASP78       0.2266
     56  O          8.4970   39.6970    9.3990 O.2    78  ASP78      -0.2867
     57  CB         7.9230   37.3440   11.7410 C.3    78  ASP78       0.1410
     58  CG         6.6840   37.0690   10.9370 C.2    78  ASP78       0.3668
     59  OD1        5.6080   36.9250   11.5540 O.co2  78  ASP78      -0.2456
     60  OD2        6.7810   36.9810    9.6980 O.co2  78  ASP78      -0.2456
     61  N          5.0800   28.2530   10.8310 N.3   100  LYS100     -0.1231
     62  CA         4.7770   28.4760   12.2310 C.3   100  LYS100      0.1693
     63  C          4.0900   27.1970   12.7600 C.2   100  LYS100      0.2591
     64  O          2.8620   27.1120   12.8630 O.2   100  LYS100     -0.2718
     65  CB         3.8940   29.7080   12.3250 C.3   100  LYS100      0.0285
     66  CG         4.5530   30.8180   11.5120 C.3   100  LYS100      0.0035
     67  CD         3.8960   32.1540   11.6930 C.3   100  LYS100      0.0206
     68  CE         4.6950   33.2420   10.9930 C.3   100  LYS100      0.1093
     69  NZ         4.0980   34.5970   11.2100 N.3   100  LYS100     -0.1314
     70  N          4.9470   26.2140   13.0610 N.am  101  GLN101     -0.1979
     71  CA         4.6590   24.8430   13.5140 C.3   101  GLN101      0.1601
     72  C          3.7460   24.3120   14.6160 C.2   101  GLN101      0.2287
     73  O          3.0240   25.0430   15.3090 O.2   101  GLN101     -0.2864
     74  CB         6.0030   24.1210   13.6670 C.3   101  GLN101      0.0394
     75  CG         6.6940   23.8150   12.3320 C.3   101  GLN101      0.0908
     76  CD         8.0000   23.0560   12.4870 C.2   101  GLN101      0.2608
     77  OE1        8.2890   22.5150   13.5610 O.2   101  GLN101     -0.2717
     78  NE2        8.7970   23.0010   11.4090 N.am  101  GLN101     -0.0878
     79  N          6.7630   24.7340   20.9190 N.3   105  ARG105     -0.1245
     80  CA         7.5880   25.8980   21.2680 C.3   105  ARG105      0.1563
     81  C          8.8360   25.6930   22.1500 C.2   105  ARG105      0.2260
     82  O          9.6820   26.5800   22.2000 O.2   105  ARG105     -0.2867
     83  CB         6.6940   26.9640   21.9440 C.3   105  ARG105      0.0307
     84  CG         7.2290   28.3950   21.9050 C.3   105  ARG105      0.0489
     85  CD         6.9720   29.1790   23.2110 C.3   105  ARG105      0.2205
     86  NE         5.5580   29.3540   23.5600 N.pl3 105  ARG105     -0.0865
     87  CZ         5.1280   29.9700   24.6620 C.cat 105  ARG105      0.5346
     88  NH1        5.9950   30.4750   25.5320 N.pl3 105  ARG105      0.1354
     89  NH2        3.8290   30.0880   24.8960 N.pl3 105  ARG105      0.1354
     90  N         13.2060   21.2740   18.0420 N.3   110  PHE110     -0.1241
     91  CA        12.5530   22.4600   17.4920 C.3   110  PHE110      0.1605
     92  C         13.4670   23.6640   17.2980 C.2   110  PHE110      0.2264
     93  O         13.6220   24.1550   16.1810 O.2   110  PHE110     -0.2867
     94  CB        11.3750   22.8620   18.3830 C.3   110  PHE110      0.0534
     95  CG        10.6950   24.1400   17.9610 C.ar  110  PHE110     -0.0203
     96  CD1        9.8720   24.1720   16.8320 C.ar  110  PHE110     -0.0042
     97  CD2       10.8970   25.3210   18.6830 C.ar  110  PHE110     -0.0042
     98  CE1        9.2570   25.3630   16.4290 C.ar  110  PHE110     -0.0003
     99  CE2       10.2880   26.5160   18.2880 C.ar  110  PHE110     -0.0003
    100  CZ         9.4700   26.5390   17.1590 C.ar  110  PHE110     -0.0000
    101  N         15.0090   25.1470   13.7110 N.3   114  ARG114     -0.1245
    102  CA        14.5890   26.5220   13.5040 C.3   114  ARG114      0.1563
    103  C         15.8170   27.4310   13.4470 C.2   114  ARG114      0.2260
    104  O         15.9480   28.2480   12.5420 O.2   114  ARG114     -0.2867
    105  CB        13.6640   26.9920   14.6280 C.3   114  ARG114      0.0307
    106  CG        13.5700   28.5120   14.7030 C.3   114  ARG114      0.0489
    107  CD        12.3860   29.0140   15.5070 C.3   114  ARG114      0.2205
    108  NE        11.1030   28.6810   14.8920 N.pl3 114  ARG114     -0.0865
    109  CZ         9.9740   29.3400   15.1310 C.cat 114  ARG114      0.5346
    110  NH1        9.9770   30.3670   15.9670 N.pl3 114  ARG114      0.1354
    111  NH2        8.8430   28.9770   14.5370 N.pl3 114  ARG114      0.1354
@<TRIPOS>BOND
     1    56    55    2
     2    60    58   ar
     3    55    54    1
     4    43    42    1
     5    61    62    1
     6    54    53    1
     7    54    57    1
     8    58    59   ar
     9    58    57    1
    10    68    69    1
    11    68    67    1
    12    78    76   am
    13    66    67    1
    14    66    65    1
    15    42    40   ar
    16    42    41   ar
    17    62    65    1
    18    62    63    1
    19    75    76    1
    20    75    74    1
    21    76    77    2
    22   104   103    2
    23    40    38   ar
    24    63    64    2
    25    63    70   am
    26    41    39   ar
    27    70    71    1
    28   103   102    1
    29   102   101    1
    30   102   105    1
    31    71    74    1
    32    71    72    1
    33    38    37   ar
    34    39    37   ar
    35    35    34    2
    36   111   109    1
    37    47    46    2
    38    72    73    2
    39   105   106    1
    40   106   107    1
    41    37    36    1
    42   108   109    2
    43   108   107    1
    44   109   110    1
    45    46    45    1
    46    34    33    1
    47    34    44   am
    48    45    44    1
    49    45    48    1
    50    36    33    1
    51    33    32    1
    52    93    92    2
    53    98    96   ar
    54    98   100   ar
    55    96    95   ar
    56    24    23    2
    57    49    48    1
    58    49    50    1
    59   100    99   ar
    60    92    91    1
    61    91    90    1
    62    91    94    1
    63    32    23   am
    64    23    22    1
    65    95    94    1
    66    95    97   ar
    67    99    97   ar
    68    50    51    1
    69    51    52    1
    70    21    22    1
    71    22    25    1
    72    26    25    1
    73    26    27    1
    74    27    28    1
    75    79    80    1
    76    28    29    2
    77    80    83    1
    78    80    81    1
    79    16    15    2
    80    19    17    1
    81    29    31    1
    82    29    30    1
    83    84    83    1
    84    84    85    1
    85    17    18    1
    86    17    14    1
    87    15    14    1
    88    81    82    2
    89    18    20    1
    90    14    13    1
    91    13     3   am
    92    85    86    1
    93     5     6    1
    94     5     2    1
    95     8     6   ar
    96     8    10   ar
    97    86    87    2
    98     6     7   ar
    99     3     2    1
   100     3     4    2
   101    10    11   ar
   102     2     1    1
   103    87    89    1
   104    87    88    1
   105     7     9   ar
   106    11     9   ar
   107    11    12    1
