@<TRIPOS>MOLECULE
tmp/2rauA02.pdb
 124 123 0 0 0
SMALL
GASTEIGER

@<TRIPOS>ATOM
      1  N         41.7700   36.9360   14.7890 N.3    56  THR56      -0.1203
      2  CA        41.9840   38.3770   14.8000 C.3    56  THR56       0.1994
      3  C         43.2360   38.7370   15.6050 C.2    56  THR56       0.2617
      4  O         43.3980   38.2880   16.7360 O.2    56  THR56      -0.2717
      5  CB        40.7660   39.0860   15.4220 C.3    56  THR56       0.1784
      6  OG1       39.5940   38.5350   14.8470 O.3    56  THR56      -0.2211
      7  CG2       40.7580   40.5900   15.1640 C.3    56  THR56       0.0376
      8  N         44.0870   39.5590   14.9820 N.am   57  TRP57      -0.1975
      9  CA        45.3630   40.0190   15.4960 C.3    57  TRP57       0.1640
     10  C         46.3690   38.8970   15.6580 C.2    57  TRP57       0.2290
     11  O         47.4760   39.1290   16.1370 O.2    57  TRP57      -0.2864
     12  CB        45.2420   40.7270   16.8510 C.3    57  TRP57       0.0576
     13  CG        44.2840   41.8960   16.8590 C.ar   57  TRP57       0.0006
     14  CD1       44.4720   43.1420   16.2920 C.ar   57  TRP57       0.0946
     15  CD2       43.0500   41.9530   17.5540 C.ar   57  TRP57       0.0152
     16  NE1       43.3870   43.9230   16.5410 N.ar   57  TRP57      -0.2442
     17  CE2       42.5050   43.2340   17.3260 C.ar   57  TRP57       0.0810
     18  CE3       42.3380   41.0290   18.3360 C.ar   57  TRP57       0.0012
     19  CZ2       41.2790   43.6260   17.8520 C.ar   57  TRP57       0.0191
     20  CZ3       41.0960   41.3980   18.8150 C.ar   57  TRP57       0.0001
     21  CH2       40.5800   42.6880   18.5730 C.ar   57  TRP57       0.0015
     22  N         39.0250   30.9370   15.7140 N.3   149  SER149     -0.1202
     23  CA        38.2400   32.1550   15.9050 C.3   149  SER149      0.2020
     24  C         37.8590   32.7590   14.5030 C.2   149  SER149      0.2618
     25  O         37.2590   32.0510   13.7060 O.2   149  SER149     -0.2717
     26  CB        39.0450   33.0990   16.8220 C.3   149  SER149      0.2103
     27  OG        38.2140   34.0760   17.3700 O.3   149  SER149     -0.2182
     28  N         38.2110   34.0240   14.2130 N.am  150  PHE150     -0.1975
     29  CA        38.0720   34.6020   12.8590 C.3   150  PHE150      0.1639
     30  C         38.5780   33.6360   11.7690 C.2   150  PHE150      0.2290
     31  O         38.0100   33.5240   10.6940 O.2   150  PHE150     -0.2864
     32  CB        38.8720   35.9060   12.7160 C.3   150  PHE150      0.0560
     33  CG        39.0890   36.2960   11.2900 C.ar  150  PHE150     -0.0200
     34  CD1       38.1190   36.9770   10.5880 C.ar  150  PHE150     -0.0042
     35  CD2       40.2380   35.8900   10.6040 C.ar  150  PHE150     -0.0042
     36  CE1       38.3230   37.3130    9.2480 C.ar  150  PHE150     -0.0003
     37  CE2       40.4360   36.2300    9.2420 C.ar  150  PHE150     -0.0003
     38  CZ        39.4510   36.9000    8.5730 C.ar  150  PHE150     -0.0000
     39  N         35.9030   31.3370   10.4310 N.3   153  ILE153     -0.1245
     40  CA        35.0570   32.0060    9.4410 C.3   153  ILE153      0.1561
     41  C         35.7970   32.0430    8.0980 C.2   153  ILE153      0.2260
     42  O         35.2170   31.7580    7.0630 O.2   153  ILE153     -0.2867
     43  CB        34.6680   33.4760    9.8710 C.3   153  ILE153      0.0252
     44  CG1       33.8840   33.4800   11.2010 C.3   153  ILE153      0.0019
     45  CG2       33.7790   34.1000    8.8360 C.3   153  ILE153      0.0019
     46  CD1       33.7960   34.8500   11.9640 C.3   153  ILE153      0.0001
     47  N         28.9160   33.4050   13.1760 N.3   178  THR178     -0.1218
     48  CA        28.3230   33.7240   14.4290 C.3   178  THR178      0.1862
     49  C         26.8220   33.8530   14.1790 C.2   178  THR178      0.2287
     50  O         26.3930   33.8620   13.0380 O.2   178  THR178     -0.2866
     51  CB        28.9450   35.0180   14.9490 C.3   178  THR178      0.1770
     52  OG1       28.6420   36.0850   14.0410 O.3   178  THR178     -0.2211
     53  CG2       30.4750   34.8650   15.0640 C.3   178  THR178      0.0375
     54  N         35.7240   42.0310   21.3120 N.3   184  PHE184     -0.1227
     55  CA        36.8350   42.6030   22.0940 C.3   184  PHE184      0.1736
     56  C         37.1870   44.0540   21.6380 C.2   184  PHE184      0.2595
     57  O         38.3830   44.4550   21.5860 O.2   184  PHE184     -0.2718
     58  CB        38.0550   41.6540   22.0570 C.3   184  PHE184      0.0547
     59  CG        37.7100   40.2080   22.4000 C.ar  184  PHE184     -0.0202
     60  CD1       37.3620   39.8450   23.6960 C.ar  184  PHE184     -0.0042
     61  CD2       37.7260   39.2060   21.4170 C.ar  184  PHE184     -0.0042
     62  CE1       37.0310   38.5040   24.0000 C.ar  184  PHE184     -0.0003
     63  CE2       37.3960   37.8640   21.7310 C.ar  184  PHE184     -0.0003
     64  CZ        37.0560   37.5220   23.0300 C.ar  184  PHE184     -0.0000
     65  N         36.1080   44.8060   21.3380 N.am  185  TYR185     -0.1976
     66  CA        36.1080   46.2320   20.9190 C.3   185  TYR185      0.1639
     67  C         34.6450   46.7630   20.7160 C.2   185  TYR185      0.2290
     68  O         33.7090   45.9680   20.4640 O.2   185  TYR185     -0.2864
     69  CB        36.9090   46.4230   19.6060 C.3   185  TYR185      0.0560
     70  CG        36.1560   45.9910   18.3540 C.ar  185  TYR185     -0.0198
     71  CD1       35.9910   44.6380   18.0500 C.ar  185  TYR185     -0.0009
     72  CD2       35.6040   46.9340   17.4820 C.ar  185  TYR185     -0.0009
     73  CE1       35.2940   44.2380   16.9150 C.ar  185  TYR185      0.0417
     74  CE2       34.9110   46.5360   16.3360 C.ar  185  TYR185      0.0417
     75  CZ        34.7550   45.1930   16.0670 C.ar  185  TYR185      0.1957
     76  OH        34.0640   44.7850   14.9490 O.3   185  TYR185     -0.2866
     77  N         41.1740   48.2520   13.8470 N.3   202  ILE202     -0.1245
     78  CA        40.7870   47.9870   15.2170 C.3   202  ILE202      0.1561
     79  C         42.1050   47.6290   15.9470 C.2   202  ILE202      0.2260
     80  O         42.8030   46.7090   15.5400 O.2   202  ILE202     -0.2867
     81  CB        39.8420   46.7570   15.3570 C.3   202  ILE202      0.0252
     82  CG1       38.6750   46.8400   14.3620 C.3   202  ILE202      0.0019
     83  CG2       39.3820   46.6000   16.8480 C.3   202  ILE202      0.0019
     84  CD1       38.0360   45.4800   14.0340 C.3   202  ILE202      0.0001
     85  N         32.1410   31.1250   25.8760 N.3   296  PHE296     -0.1241
     86  CA        32.2150   32.1080   24.7920 C.3   296  PHE296      0.1605
     87  C         31.5440   31.6230   23.5240 C.2   296  PHE296      0.2264
     88  O         30.6330   32.2600   23.0230 O.2   296  PHE296     -0.2867
     89  CB        33.6830   32.4550   24.5150 C.3   296  PHE296      0.0534
     90  CG        33.8860   33.4400   23.3970 C.ar  296  PHE296     -0.0203
     91  CD1       33.7730   34.7980   23.6310 C.ar  296  PHE296     -0.0042
     92  CD2       34.1930   33.0020   22.1190 C.ar  296  PHE296     -0.0042
     93  CE1       33.9660   35.7100   22.6280 C.ar  296  PHE296     -0.0003
     94  CE2       34.3790   33.9100   21.0970 C.ar  296  PHE296     -0.0003
     95  CZ        34.2600   35.2680   21.3440 C.ar  296  PHE296     -0.0000
     96  N         27.8450   32.4790   20.9340 N.3   300  ILE300     -0.1231
     97  CA        28.0860   33.2870   19.7610 C.3   300  ILE300      0.1692
     98  C         28.0170   32.5190   18.4270 C.2   300  ILE300      0.2592
     99  O         27.5460   33.0560   17.4270 O.2   300  ILE300     -0.2718
    100  CB        29.4910   33.9040   19.8950 C.3   300  ILE300      0.0266
    101  CG1       29.7760   34.9360   18.8280 C.3   300  ILE300      0.0019
    102  CG2       30.5610   32.8660   19.7300 C.3   300  ILE300      0.0020
    103  CD1       31.2410   35.1010   18.6230 C.3   300  ILE300      0.0001
    104  N         28.4800   31.2710   18.4080 N.am  301  PHE301     -0.1976
    105  CA        28.6340   30.5490   17.1350 C.3   301  PHE301      0.1639
    106  C         27.3640   29.7540   16.8020 C.2   301  PHE301      0.2290
    107  O         26.7550   29.1540   17.6810 O.2   301  PHE301     -0.2864
    108  CB        29.9540   29.6870   17.0720 C.3   301  PHE301      0.0560
    109  CG        31.2550   30.5030   17.2080 C.ar  301  PHE301     -0.0200
    110  CD1       31.5210   31.6010   16.3790 C.ar  301  PHE301     -0.0042
    111  CD2       32.2210   30.1480   18.1350 C.ar  301  PHE301     -0.0042
    112  CE1       32.7220   32.3650   16.5130 C.ar  301  PHE301     -0.0003
    113  CE2       33.3870   30.9160   18.2990 C.ar  301  PHE301     -0.0003
    114  CZ        33.6520   32.0170   17.4700 C.ar  301  PHE301     -0.0000
    115  N         37.4250   31.2890   25.5300 N.3   320  HIS320     -0.1241
    116  CA        37.8880   31.2890   24.1480 C.3   320  HIS320      0.1621
    117  C         39.3370   30.8850   23.9950 C.2   320  HIS320      0.2264
    118  O         39.6880   29.9680   23.2160 O.2   320  HIS320     -0.2867
    119  CB        37.6350   32.6890   23.5610 C.3   320  HIS320      0.0745
    120  CG        37.8160   32.7840   22.0770 C.ar  320  HIS320      0.0817
    121  ND1       37.2710   31.8740   21.1920 N.ar  320  HIS320     -0.2268
    122  CD2       38.4110   33.7390   21.3200 C.ar  320  HIS320      0.1154
    123  CE1       37.5480   32.2530   19.9550 C.ar  320  HIS320      0.1986
    124  NE2       38.2400   33.3770   20.0050 N.ar  320  HIS320     -0.2212
@<TRIPOS>BOND
     1    42    41    2
     2    41    40    1
     3    38    37   ar
     4    38    36   ar
     5    45    43    1
     6    37    35   ar
     7    36    34   ar
     8    40    43    1
     9    40    39    1
    10    43    44    1
    11    34    33   ar
    12    35    33   ar
    13    31    30    2
    14    44    46    1
    15    33    32    1
    16    30    29    1
    17    32    29    1
    18    29    28    1
    19    50    49    2
    20    47    48    1
    21    25    24    2
    22    77    78    1
    23    84    82    1
    24    52    51    1
    25    49    48    1
    26    28    24   am
    27    82    81    1
    28    48    51    1
    29    24    23    1
    30     1     2    1
    31     2     5    1
    32     2     3    1
    33     6     5    1
    34    76    75    1
    35    51    53    1
    36     8     9    1
    37     8     3   am
    38     7     5    1
    39    78    81    1
    40    78    79    1
    41    81    83    1
    42     9    10    1
    43     9    12    1
    44    80    79    2
    45     3     4    2
    46    10    11    2
    47    22    23    1
    48    23    26    1
    49    75    74   ar
    50    75    73   ar
    51    14    16   ar
    52    14    13   ar
    53    74    72   ar
    54   110   112   ar
    55   110   109   ar
    56   112   114   ar
    57    16    17   ar
    58   106   105    1
    59   106   107    2
    60    26    27    1
    61    12    13    1
    62    13    15   ar
    63    73    71   ar
    64   108   105    1
    65   108   109    1
    66   105   104    1
    67   109   111   ar
    68    17    15   ar
    69    17    19   ar
    70    99    98    2
    71   114   113   ar
    72    72    70   ar
    73    15    18   ar
    74    19    21   ar
    75    71    70   ar
    76   111   113   ar
    77    18    20   ar
    78    70    69    1
    79   104    98   am
    80    98    97    1
    81    21    20   ar
    82   103   101    1
    83   101   100    1
    84    69    66    1
    85   102   100    1
    86    97   100    1
    87    97    96    1
    88   123   124   ar
    89   123   121   ar
    90   124   122   ar
    91    68    67    2
    92    67    66    1
    93    66    65    1
    94    94    95   ar
    95    94    92   ar
    96   121   120   ar
    97    54    55    1
    98   122   120   ar
    99    65    56   am
   100    95    93   ar
   101    61    63   ar
   102    61    59   ar
   103    57    56    2
   104    56    55    1
   105    63    64   ar
   106    58    55    1
   107    58    59    1
   108   120   119    1
   109    92    90   ar
   110    59    60   ar
   111    93    91   ar
   112    88    87    2
   113    64    62   ar
   114   118   117    2
   115    90    91   ar
   116    90    89    1
   117    87    86    1
   118   119   116    1
   119    60    62   ar
   120   117   116    1
   121   116   115    1
   122    89    86    1
   123    86    85    1
