@<TRIPOS>MOLECULE
tmp/2rauA01.pdb
 204 197 0 0 0
SMALL
GASTEIGER

@<TRIPOS>ATOM
      1  N         43.3550   33.7510   13.9910 N.3    55  GLY55      -0.1210
      2  CA        42.2180   34.6070   14.2830 C.3    55  GLY55       0.1956
      3  C         42.6530   36.0590   14.3080 C.2    55  GLY55       0.2613
      4  O         43.7290   36.3810   13.8630 O.2    55  GLY55      -0.2717
      5  N         41.7700   36.9360   14.7890 N.am   56  THR56      -0.1938
      6  CA        41.9840   38.3770   14.8000 C.3    56  THR56       0.2028
      7  C         43.2360   38.7370   15.6050 C.2    56  THR56       0.2642
      8  O         43.3980   38.2880   16.7360 O.2    56  THR56      -0.2714
      9  CB        40.7660   39.0860   15.4220 C.3    56  THR56       0.1808
     10  OG1       39.5940   38.5350   14.8470 O.3    56  THR56      -0.2208
     11  CG2       40.7580   40.5900   15.1640 C.3    56  THR56       0.0379
     12  N         44.0870   39.5590   14.9820 N.am   57  TRP57      -0.1959
     13  CA        45.3630   40.0190   15.4960 C.3    57  TRP57       0.1771
     14  C         46.3690   38.8970   15.6580 C.2    57  TRP57       0.2620
     15  O         47.4760   39.1290   16.1370 O.2    57  TRP57      -0.2715
     16  CB        45.2420   40.7270   16.8510 C.3    57  TRP57       0.0590
     17  CG        44.2840   41.8960   16.8590 C.ar   57  TRP57       0.0006
     18  CD1       44.4720   43.1420   16.2920 C.ar   57  TRP57       0.0946
     19  CD2       43.0500   41.9530   17.5540 C.ar   57  TRP57       0.0152
     20  NE1       43.3870   43.9230   16.5410 N.ar   57  TRP57      -0.2442
     21  CE2       42.5050   43.2340   17.3260 C.ar   57  TRP57       0.0810
     22  CE3       42.3380   41.0290   18.3360 C.ar   57  TRP57       0.0012
     23  CZ2       41.2790   43.6260   17.8520 C.ar   57  TRP57       0.0191
     24  CZ3       41.0960   41.3980   18.8150 C.ar   57  TRP57       0.0001
     25  CH2       40.5800   42.6880   18.5730 C.ar   57  TRP57       0.0015
     26  N         46.0300   37.7090   15.1900 N.am   58  SER58      -0.1950
     27  CA        46.9310   36.5760   15.2940 C.3    58  SER58       0.1924
     28  C         47.7060   36.3890   13.9790 C.2    58  SER58       0.2314
     29  O         47.4330   37.0730   12.9920 O.2    58  SER58      -0.2863
     30  CB        46.1640   35.3340   15.7740 C.3    58  SER58       0.2116
     31  OG        47.0210   34.1930   16.0610 O.3    58  SER58      -0.2180
     32  N         52.8340   33.6700   15.6370 N.3    62  GLN62      -0.1231
     33  CA        52.2750   33.4670   16.9510 C.3    62  GLN62       0.1698
     34  C         51.9420   32.0100   17.1880 C.2    62  GLN62       0.2592
     35  O         52.2100   31.4900   18.2760 O.2    62  GLN62      -0.2718
     36  CB        51.0390   34.3180   17.1780 C.3    62  GLN62       0.0381
     37  CG        50.6040   34.3430   18.6320 C.3    62  GLN62       0.0905
     38  CD        49.3990   35.1800   18.8610 C.2    62  GLN62       0.2608
     39  OE1       48.4280   35.1590   18.0920 O.2    62  GLN62      -0.2717
     40  NE2       49.4430   35.9470   19.9470 N.am   62  GLN62      -0.0878
     41  N         51.3810   31.3630   16.1630 N.am   63  LEU63      -0.1980
     42  CA        50.9450   29.9670   16.2530 C.3    63  LEU63       0.1596
     43  C         52.0420   28.9500   16.3620 C.2    63  LEU63       0.2287
     44  O         51.8020   27.8210   16.7950 O.2    63  LEU63      -0.2864
     45  CB        50.0030   29.6250   15.1050 C.3    63  LEU63       0.0297
     46  CG        48.5060   29.7820   15.3510 C.3    63  LEU63       0.0022
     47  CD1       48.0610   30.9420   16.2360 C.3    63  LEU63       0.0001
     48  CD2       47.6770   29.6350   14.1450 C.3    63  LEU63       0.0001
     49  N         54.8750   31.8860   19.3870 N.3    66  ILE66      -0.1245
     50  CA        54.3310   32.8020   20.3810 C.3    66  ILE66       0.1561
     51  C         55.2160   34.0470   20.4450 C.2    66  ILE66       0.2260
     52  O         55.6210   34.5150   21.5160 O.2    66  ILE66      -0.2867
     53  CB        54.1260   32.1300   21.7740 C.3    66  ILE66       0.0252
     54  CG1       53.7330   30.6240   21.5920 C.3    66  ILE66       0.0019
     55  CG2       53.0000   32.8330   22.5700 C.3    66  ILE66       0.0019
     56  CD1       53.5330   29.8480   22.8850 C.3    66  ILE66       0.0001
     57  N         50.1200   23.5060   21.9970 N.3    81  SER81      -0.1217
     58  CA        50.1110   24.1820   20.7070 C.3    81  SER81       0.1889
     59  C         49.6640   23.2200   19.6190 C.2    81  SER81       0.2288
     60  O         50.3320   22.2440   19.3600 O.2    81  SER81      -0.2866
     61  CB        51.5000   24.7410   20.4160 C.3    81  SER81       0.2089
     62  OG        51.5930   25.1150   19.0700 O.3    81  SER81      -0.2183
     63  N         41.1840   29.1800   13.6770 N.3   148  GLU148     -0.1231
     64  CA        40.9570   29.6270   15.0600 C.3   148  GLU148      0.1699
     65  C         40.1970   30.9310   15.0750 C.2   148  GLU148      0.2592
     66  O         40.6620   31.9190   14.5400 O.2   148  GLU148     -0.2718
     67  CB        42.3070   29.8280   15.7760 C.3   148  GLU148      0.0402
     68  CG        43.1850   28.5980   15.7810 C.3   148  GLU148      0.1161
     69  CD        44.4590   28.7290   16.5990 C.2   148  GLU148      0.3649
     70  OE1       44.7810   29.8630   17.0740 O.co2 148  GLU148     -0.2457
     71  OE2       45.1430   27.6960   16.7730 O.co2 148  GLU148     -0.2457
     72  N         39.0250   30.9370   15.7140 N.am  149  SER149     -0.1952
     73  CA        38.2400   32.1550   15.9050 C.3   149  SER149      0.1924
     74  C         37.8590   32.7590   14.5030 C.2   149  SER149      0.2314
     75  O         37.2590   32.0510   13.7060 O.2   149  SER149     -0.2863
     76  CB        39.0450   33.0990   16.8220 C.3   149  SER149      0.2116
     77  OG        38.2140   34.0760   17.3700 O.3   149  SER149     -0.2180
     78  N         35.7240   42.0310   21.3120 N.3   184  PHE184     -0.1241
     79  CA        36.8350   42.6030   22.0940 C.3   184  PHE184      0.1605
     80  C         37.1870   44.0540   21.6380 C.2   184  PHE184      0.2264
     81  O         38.3830   44.4550   21.5860 O.2   184  PHE184     -0.2867
     82  CB        38.0550   41.6540   22.0570 C.3   184  PHE184      0.0534
     83  CG        37.7100   40.2080   22.4000 C.ar  184  PHE184     -0.0203
     84  CD1       37.3620   39.8450   23.6960 C.ar  184  PHE184     -0.0042
     85  CD2       37.7260   39.2060   21.4170 C.ar  184  PHE184     -0.0042
     86  CE1       37.0310   38.5040   24.0000 C.ar  184  PHE184     -0.0003
     87  CE2       37.3960   37.8640   21.7310 C.ar  184  PHE184     -0.0003
     88  CZ        37.0560   37.5220   23.0300 C.ar  184  PHE184     -0.0000
     89  N         44.1560   45.0210   22.2770 N.3   205  ARG205     -0.1245
     90  CA        44.4360   45.3870   23.6820 C.3   205  ARG205      0.1563
     91  C         45.7060   44.6830   24.1920 C.2   205  ARG205      0.2260
     92  O         46.1570   44.9410   25.2970 O.2   205  ARG205     -0.2867
     93  CB        43.2030   45.1630   24.5660 C.3   205  ARG205      0.0307
     94  CG        42.1550   46.3210   24.3090 C.3   205  ARG205      0.0489
     95  CD        40.9990   46.4630   25.3470 C.3   205  ARG205      0.2205
     96  NE        41.4170   46.9260   26.6740 N.pl3 205  ARG205     -0.0865
     97  CZ        41.8420   48.1580   26.9500 C.cat 205  ARG205      0.5346
     98  NH1       41.9570   49.0750   25.9880 N.pl3 205  ARG205      0.1354
     99  NH2       42.1820   48.4770   28.1970 N.pl3 205  ARG205      0.1354
    100  N         50.9870   43.4360   29.5330 N.3   213  TRP213     -0.1241
    101  CA        50.8730   41.9750   29.7320 C.3   213  TRP213      0.1605
    102  C         52.2080   41.3350   30.0950 C.2   213  TRP213      0.2264
    103  O         52.3230   40.5900   31.0720 O.2   213  TRP213     -0.2867
    104  CB        50.2780   41.3180   28.4910 C.3   213  TRP213      0.0550
    105  CG        48.9150   41.8480   28.1100 C.ar  213  TRP213      0.0003
    106  CD1       48.6520   42.8630   27.2490 C.ar  213  TRP213      0.0946
    107  CD2       47.6580   41.3910   28.5860 C.ar  213  TRP213      0.0152
    108  NE1       47.3150   43.1030   27.1920 N.ar  213  TRP213     -0.2442
    109  CE2       46.6770   42.2100   28.0100 C.ar  213  TRP213      0.0810
    110  CE3       47.2660   40.3780   29.4680 C.ar  213  TRP213      0.0012
    111  CZ2       45.3210   42.0250   28.2330 C.ar  213  TRP213      0.0191
    112  CZ3       45.9310   40.1970   29.6860 C.ar  213  TRP213      0.0001
    113  CH2       44.9730   41.0170   29.0670 C.ar  213  TRP213      0.0015
    114  N         39.9950   40.4030   33.5910 N.3   237  SER237     -0.1202
    115  CA        39.4980   41.0480   32.3660 C.3   237  SER237      0.2020
    116  C         39.2620   40.0030   31.2700 C.2   237  SER237      0.2618
    117  O         38.3010   40.1240   30.5020 O.2   237  SER237     -0.2717
    118  CB        40.4180   42.1690   31.8580 C.3   237  SER237      0.2103
    119  OG        41.6140   41.6820   31.2870 O.3   237  SER237     -0.2182
    120  N         40.1210   38.9770   31.2150 N.am  238  LEU238     -0.1979
    121  CA        39.9110   37.8520   30.3040 C.3   238  LEU238      0.1596
    122  C         38.6860   37.0100   30.6880 C.2   238  LEU238      0.2287
    123  O         37.9620   36.5400   29.8470 O.2   238  LEU238     -0.2864
    124  CB        41.1640   36.9610   30.2450 C.3   238  LEU238      0.0297
    125  CG        42.4020   37.6820   29.6390 C.3   238  LEU238      0.0022
    126  CD1       43.6740   36.8220   29.7250 C.3   238  LEU238      0.0001
    127  CD2       42.1640   38.1950   28.2040 C.3   238  LEU238      0.0001
    128  N         35.2790   38.7690   29.7150 N.3   241  THR241     -0.1218
    129  CA        35.0480   38.6950   28.2600 C.3   241  THR241      0.1862
    130  C         34.8630   37.2840   27.7020 C.2   241  THR241      0.2287
    131  O         34.7010   37.1210   26.4920 O.2   241  THR241     -0.2866
    132  CB        36.1240   39.4380   27.4680 C.3   241  THR241      0.1770
    133  OG1       37.4520   38.9180   27.7230 O.3   241  THR241     -0.2211
    134  CG2       36.1230   40.9120   27.8390 C.3   241  THR241      0.0375
    135  N         37.0620   34.9710   27.6320 N.3   243  SER243     -0.1217
    136  CA        38.3420   34.5610   27.0330 C.3   243  SER243      0.1889
    137  C         39.1470   33.5040   27.8070 C.2   243  SER243      0.2288
    138  O         40.0110   32.8400   27.2470 O.2   243  SER243     -0.2866
    139  CB        39.2060   35.8020   26.8820 C.3   243  SER243      0.2089
    140  OG        38.5330   36.7790   26.1120 O.3   243  SER243     -0.2183
    141  N         50.3030   35.2080   24.8900 N.3   259  ILE259     -0.1231
    142  CA        49.3940   35.2800   23.7390 C.3   259  ILE259      0.1692
    143  C         49.0160   36.7240   23.5180 C.2   259  ILE259      0.2591
    144  O         49.1340   37.2400   22.4260 O.2   259  ILE259     -0.2718
    145  CB        48.1140   34.3490   23.8800 C.3   259  ILE259      0.0266
    146  CG1       48.5490   32.8740   23.7790 C.3   259  ILE259      0.0019
    147  CG2       47.0280   34.7620   22.8410 C.3   259  ILE259      0.0020
    148  CD1       47.4830   31.7700   24.2290 C.3   259  ILE259      0.0001
    149  N         48.5510   37.3930   24.5640 N.am  260  LEU260     -0.1980
    150  CA        48.1440   38.7870   24.4360 C.3   260  LEU260      0.1596
    151  C         49.3220   39.6330   23.9710 C.2   260  LEU260      0.2287
    152  O         49.1780   40.4930   23.1170 O.2   260  LEU260     -0.2864
    153  CB        47.5780   39.2930   25.7600 C.3   260  LEU260      0.0297
    154  CG        46.0410   39.1810   25.9400 C.3   260  LEU260      0.0022
    155  CD1       45.3700   40.2020   25.0730 C.3   260  LEU260      0.0001
    156  CD2       45.4750   37.7770   25.7080 C.3   260  LEU260      0.0001
    157  N         50.3430   39.3720   19.9440 N.3   263  PHE263     -0.1241
    158  CA        49.4420   39.7690   18.8750 C.3   263  PHE263      0.1605
    159  C         50.0590   40.8510   17.9630 C.2   263  PHE263      0.2264
    160  O         50.9100   41.6000   18.3820 O.2   263  PHE263     -0.2867
    161  CB        48.1520   40.3620   19.4450 C.3   263  PHE263      0.0534
    162  CG        47.1150   39.3220   19.9170 C.ar  263  PHE263     -0.0203
    163  CD1       46.8790   38.1720   19.2120 C.ar  263  PHE263     -0.0042
    164  CD2       46.3870   39.5570   21.0530 C.ar  263  PHE263     -0.0042
    165  CE1       45.9350   37.2640   19.6280 C.ar  263  PHE263     -0.0003
    166  CE2       45.4160   38.6490   21.4670 C.ar  263  PHE263     -0.0003
    167  CZ        45.2190   37.5010   20.7560 C.ar  263  PHE263     -0.0000
    168  N         37.4250   31.2890   25.5300 N.3   320  HIS320     -0.1226
    169  CA        37.8880   31.2890   24.1480 C.3   320  HIS320      0.1752
    170  C         39.3370   30.8850   23.9950 C.2   320  HIS320      0.2595
    171  O         39.6880   29.9680   23.2160 O.2   320  HIS320     -0.2718
    172  CB        37.6350   32.6890   23.5610 C.3   320  HIS320      0.0759
    173  CG        37.8160   32.7840   22.0770 C.ar  320  HIS320      0.0818
    174  ND1       37.2710   31.8740   21.1920 N.ar  320  HIS320     -0.2268
    175  CD2       38.4110   33.7390   21.3200 C.ar  320  HIS320      0.1154
    176  CE1       37.5480   32.2530   19.9550 C.ar  320  HIS320      0.1986
    177  NE2       38.2400   33.3770   20.0050 N.ar  320  HIS320     -0.2212
    178  N         40.2100   31.5640   24.7340 N.am  321  LEU321     -0.1980
    179  CA        41.6270   31.3200   24.5920 C.3   321  LEU321      0.1596
    180  C         42.0970   30.0030   25.1430 C.2   321  LEU321      0.2287
    181  O         43.1840   29.5720   24.7670 O.2   321  LEU321     -0.2864
    182  CB        42.4380   32.4650   25.1490 C.3   321  LEU321      0.0297
    183  CG        42.2250   33.8710   24.5280 C.3   321  LEU321      0.0022
    184  CD1       43.0770   34.9090   25.2650 C.3   321  LEU321      0.0001
    185  CD2       42.5570   33.8700   23.0570 C.3   321  LEU321      0.0001
    186  N         43.1430   27.1250   22.7300 N.3   324  TYR324     -0.1227
    187  CA        44.4400   27.2570   22.0620 C.3   324  TYR324      0.1736
    188  C         45.6850   27.0590   22.9180 C.2   324  TYR324      0.2596
    189  O         46.7780   27.0120   22.4060 O.2   324  TYR324     -0.2718
    190  CB        44.5200   28.6520   21.4060 C.3   324  TYR324      0.0548
    191  CG        43.2570   29.0330   20.6960 C.ar  324  TYR324     -0.0200
    192  CD1       42.7480   28.2400   19.6840 C.ar  324  TYR324     -0.0009
    193  CD2       42.5860   30.1950   21.0120 C.ar  324  TYR324     -0.0009
    194  CE1       41.5390   28.5590   19.0580 C.ar  324  TYR324      0.0417
    195  CE2       41.4010   30.5250   20.3990 C.ar  324  TYR324      0.0417
    196  CZ        40.8840   29.7000   19.4220 C.ar  324  TYR324      0.1957
    197  OH        39.7010   30.0310   18.8090 O.3   324  TYR324     -0.2866
    198  N         45.5280   26.9470   24.2340 N.am  325  THR325     -0.1953
    199  CA        46.6610   26.8670   25.1340 C.3   325  THR325      0.1897
    200  C         46.2540   26.2290   26.4690 C.2   325  THR325      0.2313
    201  O         45.0540   25.9320   26.6910 O.2   325  THR325     -0.2863
    202  CB        47.2970   28.2670   25.4120 C.3   325  THR325      0.1794
    203  OG1       48.5530   28.0810   26.0750 O.3   325  THR325     -0.2208
    204  CG2       46.3250   29.1730   26.2650 C.3   325  THR325      0.0378
@<TRIPOS>BOND
     1    29    28    2
     2    63    64    1
     3    75    74    2
     4     4     3    2
     5    28    27    1
     6     1     2    1
     7    48    46    1
     8     2     3    1
     9     3     5   am
    10    74    73    1
    11    66    65    2
    12     5     6    1
    13     6     9    1
    14     6     7    1
    15    10     9    1
    16    12    13    1
    17    12     7   am
    18    64    65    1
    19    64    67    1
    20    65    72   am
    21    45    46    1
    22    45    42    1
    23    11     9    1
    24    26    27    1
    25    26    14   am
    26    27    30    1
    27    46    47    1
    28    13    14    1
    29    13    16    1
    30     7     8    2
    31    32    33    1
    32    14    15    2
    33    72    73    1
    34    30    31    1
    35    67    68    1
    36    68    69    1
    37    73    76    1
    38    41    42    1
    39    41    34   am
    40    42    43    1
    41    18    20   ar
    42    18    17   ar
    43    43    44    2
    44    20    21   ar
    45    69    71   ar
    46    69    70   ar
    47    76    77    1
    48    16    17    1
    49    17    19   ar
    50    33    36    1
    51    33    34    1
    52    36    37    1
    53    34    35    2
    54    21    19   ar
    55    21    23   ar
    56    19    22   ar
    57    23    25   ar
    58   159   160    2
    59   159   158    1
    60    39    38    2
    61    22    24   ar
    62    25    24   ar
    63    37    38    1
    64   197   196    1
    65    38    40   am
    66   158   161    1
    67   158   157    1
    68   194   196   ar
    69   194   192   ar
    70    62    61    1
    71   163   165   ar
    72   163   162   ar
    73    60    59    2
    74    49    50    1
    75   196   195   ar
    76   161   162    1
    77    59    58    1
    78   165   167   ar
    79   192   191   ar
    80   162   164   ar
    81   176   177   ar
    82   176   174   ar
    83   177   175   ar
    84    50    51    1
    85    50    53    1
    86   195   193   ar
    87    61    58    1
    88    51    52    2
    89   191   193   ar
    90   191   190    1
    91    58    57    1
    92   167   166   ar
    93   164   166   ar
    94   174   173   ar
    95    78    79    1
    96   175   173   ar
    97   190   187    1
    98    85    87   ar
    99    85    83   ar
   100    81    80    2
   101    54    53    1
   102    54    56    1
   103    80    79    1
   104    87    88   ar
   105    53    55    1
   106    82    79    1
   107    82    83    1
   108   187   186    1
   109   187   188    1
   110   173   172    1
   111    89    90    1
   112    83    84   ar
   113   189   188    2
   114   144   143    2
   115   147   145    1
   116   188   198   am
   117    88    86   ar
   118   185   183    1
   119   152   151    2
   120   171   170    2
   121   143   142    1
   122   143   149   am
   123   172   169    1
   124    90    91    1
   125    90    93    1
   126    84    86   ar
   127   142   145    1
   128   142   141    1
   129   146   145    1
   130   146   148    1
   131   151   150    1
   132   170   169    1
   133   170   178   am
   134   169   168    1
   135    91    92    2
   136   198   199    1
   137    94    93    1
   138    94    95    1
   139   150   149    1
   140   150   153    1
   141   183   182    1
   142   183   184    1
   143   179   178    1
   144   179   180    1
   145   179   182    1
   146   181   180    2
   147   155   154    1
   148   199   202    1
   149   199   200    1
   150    95    96    1
   151   202   203    1
   152   202   204    1
   153   156   154    1
   154   153   154    1
   155    98    97    1
   156   140   139    1
   157   200   201    2
   158   131   130    2
   159    96    97    2
   160   139   136    1
   161    97    99    1
   162   136   135    1
   163   136   137    1
   164   108   106   ar
   165   108   109   ar
   166   138   137    2
   167   106   105   ar
   168   132   133    1
   169   132   134    1
   170   132   129    1
   171   130   129    1
   172   109   111   ar
   173   109   107   ar
   174   105   104    1
   175   105   107   ar
   176   127   125    1
   177   111   113   ar
   178   129   128    1
   179   104   101    1
   180   107   110   ar
   181   113   112   ar
   182   110   112   ar
   183   100   101    1
   184   125   126    1
   185   125   124    1
   186   101   102    1
   187   123   122    2
   188   102   103    2
   189   124   121    1
   190   121   122    1
   191   121   120    1
   192   117   116    2
   193   120   116   am
   194   116   115    1
   195   119   118    1
   196   118   115    1
   197   115   114    1
