@<TRIPOS>MOLECULE
tmp/2rayA00.pdb
 122 113 0 0 0
SMALL
GASTEIGER

@<TRIPOS>ATOM
      1  N         24.2280    7.1840   12.1680 N.3    78  ILE78      -0.1245
      2  CA        23.8890    6.4940   10.9310 C.3    78  ILE78       0.1561
      3  C         22.6650    5.5930   11.1380 C.2    78  ILE78       0.2260
      4  O         21.7010    5.6560   10.3610 O.2    78  ILE78      -0.2867
      5  CB        25.0920    5.6700   10.3960 C.3    78  ILE78       0.0252
      6  CG1       26.1170    6.6030    9.7120 C.3    78  ILE78       0.0019
      7  CG2       24.6090    4.6310    9.3880 C.3    78  ILE78       0.0019
      8  CD1       27.5470    6.0230    9.5900 C.3    78  ILE78       0.0001
      9  N         20.1940    7.0500    5.9020 N.3    84  LEU84      -0.1245
     10  CA        21.5020    6.4220    5.9610 C.3    84  LEU84       0.1561
     11  C         21.4490    4.9380    6.3260 C.2    84  LEU84       0.2260
     12  O         22.1750    4.1370    5.7470 O.2    84  LEU84      -0.2867
     13  CB        22.4420    7.1820    6.9170 C.3    84  LEU84       0.0270
     14  CG        22.7230    8.6600    6.5810 C.3    84  LEU84       0.0019
     15  CD1       23.7440    9.2660    7.5490 C.3    84  LEU84       0.0001
     16  CD2       23.2170    8.7770    5.1360 C.3    84  LEU84       0.0001
     17  N         21.1780    2.1090    3.5500 N.3    87  VAL87      -0.1231
     18  CA        22.3770    2.0660    2.7250 C.3    87  VAL87       0.1692
     19  C         23.5220    1.4000    3.5060 C.2    87  VAL87       0.2592
     20  O         24.2080    0.5040    3.0040 O.2    87  VAL87      -0.2718
     21  CB        22.7400    3.4670    2.1770 C.3    87  VAL87       0.0266
     22  CG1       23.9290    3.3530    1.2170 C.3    87  VAL87       0.0020
     23  CG2       21.5460    4.0800    1.4670 C.3    87  VAL87       0.0020
     24  N         23.7160    1.8300    4.7530 N.am   88  TYR88      -0.1976
     25  CA        24.7480    1.2620    5.6160 C.3    88  TYR88       0.1639
     26  C         24.5530   -0.2470    5.7900 C.2    88  TYR88       0.2290
     27  O         25.5040   -1.0210    5.6680 O.2    88  TYR88      -0.2864
     28  CB        24.6940    1.9440    6.9810 C.3    88  TYR88       0.0560
     29  CG        25.7730    1.5260    7.9260 C.ar   88  TYR88      -0.0198
     30  CD1       27.0420    2.1230    7.8740 C.ar   88  TYR88      -0.0009
     31  CD2       25.5230    0.5620    8.9010 C.ar   88  TYR88      -0.0009
     32  CE1       28.0520    1.7450    8.7550 C.ar   88  TYR88       0.0417
     33  CE2       26.5180    0.1690    9.7780 C.ar   88  TYR88       0.0417
     34  CZ        27.7880    0.7650    9.6920 C.ar   88  TYR88       0.1957
     35  OH        28.7730    0.4000   10.5660 O.3    88  TYR88      -0.2866
     36  N         25.7940   -2.4190    2.9400 N.3    91  LEU91      -0.1245
     37  CA        27.2210   -2.4480    2.6480 C.3    91  LEU91       0.1561
     38  C         27.9380   -3.5590    3.3960 C.2    91  LEU91       0.2260
     39  O         27.4720   -3.9980    4.4560 O.2    91  LEU91      -0.2867
     40  CB        27.8760   -1.1060    3.0400 C.3    91  LEU91       0.0270
     41  CG        27.3770    0.1390    2.2600 C.3    91  LEU91       0.0019
     42  CD1       28.0190    1.3810    2.9090 C.3    91  LEU91       0.0001
     43  CD2       27.7230    0.0300    0.7920 C.3    91  LEU91       0.0001
     44  N         31.7420    4.9430    4.9470 N.3    99  ALA99      -0.1245
     45  CA        30.5320    5.6500    5.3680 C.3    99  ALA99       0.1562
     46  C         30.7010    6.3720    6.7040 C.2    99  ALA99       0.2260
     47  O         30.3260    7.5590    6.8230 O.2    99  ALA99      -0.2867
     48  CB        29.3110    4.6660    5.4210 C.3    99  ALA99       0.0290
     49  N         33.0390    9.5110    6.3760 N.3   102  MET102     -0.1230
     50  CA        32.3380   10.7080    5.8880 C.3   102  MET102      0.1702
     51  C         31.4480   11.3810    6.9450 C.2   102  MET102      0.2592
     52  O         31.4360   12.6100    7.0640 O.2   102  MET102     -0.2718
     53  CB        31.5230   10.3880    4.6280 C.3   102  MET102      0.0401
     54  CG        32.3770   10.0240    3.4280 C.3   102  MET102      0.0596
     55  SD        31.4160    9.9100    1.9070 S.3   102  MET102     -0.1393
     56  CE        30.9570   11.5910    1.5080 C.3   102  MET102      0.0692
     57  N         30.6980   10.5800    7.7000 N.am  103  VAL103     -0.1980
     58  CA        29.8480   11.1260    8.7680 C.3   103  VAL103      0.1595
     59  C         30.6960   11.8120    9.8500 C.2   103  VAL103      0.2287
     60  O         30.3600   12.9290   10.3100 O.2   103  VAL103     -0.2864
     61  CB        28.9140   10.0410    9.3840 C.3   103  VAL103      0.0276
     62  CG1       28.2050   10.5580   10.6890 C.3   103  VAL103      0.0022
     63  CG2       27.8530    9.6040    8.3500 C.3   103  VAL103      0.0022
     64  N         26.0960   14.3300    5.0050 N.3   111  VAL111     -0.1245
     65  CA        26.1610   13.1230    4.1560 C.3   111  VAL111      0.1561
     66  C         24.7860   12.5810    3.7440 C.2   111  VAL111      0.2260
     67  O         24.6500   12.0240    2.6490 O.2   111  VAL111     -0.2867
     68  CB        27.1870   12.0310    4.6340 C.3   111  VAL111      0.0252
     69  CG1       27.9010   12.4240    5.9060 C.3   111  VAL111      0.0019
     70  CG2       26.5640   10.6520    4.7180 C.3   111  VAL111      0.0019
     71  N         23.7130   13.4890    0.2030 N.3   114  PHE114     -0.1241
     72  CA        24.3970   12.8780   -0.9290 C.3   114  PHE114      0.1605
     73  C         23.4400   11.8450   -1.5470 C.2   114  PHE114      0.2264
     74  O         23.8120   10.6850   -1.7730 O.2   114  PHE114     -0.2867
     75  CB        25.6790   12.1950   -0.4420 C.3   114  PHE114      0.0534
     76  CG        26.8980   13.1060   -0.4050 C.ar  114  PHE114     -0.0203
     77  CD1       26.9670   14.1850    0.4810 C.ar  114  PHE114     -0.0042
     78  CD2       27.9770   12.8640   -1.2560 C.ar  114  PHE114     -0.0042
     79  CE1       28.1150   15.0160    0.5080 C.ar  114  PHE114     -0.0003
     80  CE2       29.1260   13.6770   -1.2320 C.ar  114  PHE114     -0.0003
     81  CZ        29.1720   14.7630   -0.3460 C.ar  114  PHE114     -0.0000
     82  N         24.4770    9.7120   -4.7180 N.3   117  SER117     -0.1202
     83  CA        25.5640    8.7990   -4.3570 C.3   117  SER117      0.2020
     84  C         25.0690    7.6580   -3.4580 C.2   117  SER117      0.2618
     85  O         25.4470    6.5000   -3.6790 O.2   117  SER117     -0.2717
     86  CB        26.7280    9.5250   -3.6600 C.3   117  SER117      0.2103
     87  OG        27.5460   10.2160   -4.6090 O.3   117  SER117     -0.2182
     88  N         24.2580    7.9990   -2.4430 N.am  118  LEU118     -0.1979
     89  CA        23.6770    6.9840   -1.5470 C.3   118  LEU118      0.1596
     90  C         22.9410    5.9170   -2.3400 C.2   118  LEU118      0.2287
     91  O         23.0810    4.7190   -2.0540 O.2   118  LEU118     -0.2864
     92  CB        22.7200    7.6030   -0.5230 C.3   118  LEU118      0.0297
     93  CG        23.3640    8.4130    0.5960 C.3   118  LEU118      0.0022
     94  CD1       22.3050    9.2560    1.2940 C.3   118  LEU118      0.0001
     95  CD2       24.0890    7.4640    1.5770 C.3   118  LEU118      0.0001
     96  N         25.3970    3.6360   -4.2060 N.3   121  LEU121     -0.1245
     97  CA        25.9960    2.7190   -3.2350 C.3   121  LEU121      0.1561
     98  C         25.0590    1.5650   -2.8860 C.2   121  LEU121      0.2260
     99  O         25.5010    0.4200   -2.8480 O.2   121  LEU121     -0.2867
    100  CB        26.4510    3.4420   -1.9480 C.3   121  LEU121      0.0270
    101  CG        27.6460    4.4030   -2.0850 C.3   121  LEU121      0.0019
    102  CD1       27.8850    5.1550   -0.7310 C.3   121  LEU121      0.0001
    103  CD2       28.9280    3.6910   -2.5520 C.3   121  LEU121      0.0001
    104  N         30.4640   10.9120   -6.1510 N.3   133  LEU133     -0.1245
    105  CA        31.0280   11.4050   -4.8750 C.3   133  LEU133      0.1561
    106  C         32.0020   12.5680   -5.0520 C.2   133  LEU133      0.2260
    107  O         32.0720   13.4680   -4.1990 O.2   133  LEU133     -0.2867
    108  CB        31.7260   10.2680   -4.1300 C.3   133  LEU133      0.0270
    109  CG        30.7570    9.3100   -3.4000 C.3   133  LEU133      0.0019
    110  CD1       31.4530    8.0260   -2.9710 C.3   133  LEU133      0.0001
    111  CD2       30.1090    9.9930   -2.1780 C.3   133  LEU133      0.0001
    112  N         35.1590    3.1150   -1.0970 N.3   153  PHE153     -0.1241
    113  CA        33.8090    2.8310   -1.6150 C.3   153  PHE153      0.1605
    114  C         33.8230    2.1250   -2.9720 C.2   153  PHE153      0.2264
    115  O         32.9940    1.2410   -3.2510 O.2   153  PHE153     -0.2867
    116  CB        33.0230    4.1320   -1.7810 C.3   153  PHE153      0.0534
    117  CG        32.3220    4.5970   -0.5370 C.ar  153  PHE153     -0.0203
    118  CD1       31.4480    3.7330    0.1730 C.ar  153  PHE153     -0.0042
    119  CD2       32.4900    5.9150   -0.0870 C.ar  153  PHE153     -0.0042
    120  CE1       30.7650    4.1770    1.3220 C.ar  153  PHE153     -0.0003
    121  CE2       31.7900    6.3790    1.0660 C.ar  153  PHE153     -0.0003
    122  CZ        30.9370    5.5000    1.7720 C.ar  153  PHE153     -0.0000
@<TRIPOS>BOND
     1   104   105    1
     2   106   105    1
     3   106   107    2
     4   105   108    1
     5    82    83    1
     6    87    86    1
     7    83    86    1
     8    83    84    1
     9    96    97    1
    10   108   109    1
    11    85    84    2
    12    84    88   am
    13   109   110    1
    14   109   111    1
    15   115   114    2
    16    97    98    1
    17    97   100    1
    18   114   113    1
    19    98    99    2
    20   103   101    1
    21    88    89    1
    22    90    91    2
    23    90    89    1
    24   101   100    1
    25   101   102    1
    26   116   113    1
    27   116   117    1
    28    74    73    2
    29   113   112    1
    30    89    92    1
    31    73    72    1
    32    78    80   ar
    33    78    76   ar
    34    80    81   ar
    35    72    75    1
    36    72    71    1
    37   117   119   ar
    38   117   118   ar
    39    92    93    1
    40    75    76    1
    41    76    77   ar
    42    81    79   ar
    43   119   121   ar
    44   118   120   ar
    45    77    79   ar
    46    93    94    1
    47    93    95    1
    48    43    41    1
    49   121   122   ar
    50    22    21    1
    51   120   122   ar
    52    23    21    1
    53    56    55    1
    54    55    54    1
    55    21    18    1
    56    41    42    1
    57    41    40    1
    58    37    36    1
    59    37    40    1
    60    37    38    1
    61    67    66    2
    62    18    19    1
    63    18    17    1
    64    20    19    2
    65    38    39    2
    66    54    53    1
    67    19    24   am
    68    66    65    1
    69    65    68    1
    70    65    64    1
    71    53    50    1
    72    68    70    1
    73    68    69    1
    74    24    25    1
    75    44    45    1
    76    16    14    1
    77    45    48    1
    78    45    46    1
    79    25    26    1
    80    25    28    1
    81    27    26    2
    82    12    11    2
    83    50    49    1
    84    50    51    1
    85     9    10    1
    86    10    11    1
    87    10    13    1
    88    14    13    1
    89    14    15    1
    90    46    47    2
    91    51    52    2
    92    51    57   am
    93    28    29    1
    94    57    58    1
    95    30    29   ar
    96    30    32   ar
    97    29    31   ar
    98    63    61    1
    99    32    34   ar
   100    58    61    1
   101    58    59    1
   102    31    33   ar
   103    61    62    1
   104     7     5    1
   105     8     6    1
   106    34    33   ar
   107    34    35    1
   108     6     5    1
   109    59    60    2
   110     4     3    2
   111     5     2    1
   112     2     3    1
   113     2     1    1
