@<TRIPOS>MOLECULE
tmp/2razA00.pdb
 122 113 0 0 0
SMALL
GASTEIGER

@<TRIPOS>ATOM
      1  N        -24.4920   27.8480  -12.2420 N.3    78  ILE78      -0.1245
      2  CA       -24.1010   28.4330  -10.9640 C.3    78  ILE78       0.1561
      3  C        -23.8990   29.9460  -11.0870 C.2    78  ILE78       0.2260
      4  O        -24.4100   30.7150  -10.2570 O.2    78  ILE78      -0.2867
      5  CB       -22.8260   27.7420  -10.3900 C.3    78  ILE78       0.0252
      6  CG1      -23.1900   26.3630   -9.8210 C.3    78  ILE78       0.0019
      7  CG2      -22.1810   28.6040   -9.3090 C.3    78  ILE78       0.0019
      8  CD1      -21.9790   25.4350   -9.6100 C.3    78  ILE78       0.0001
      9  N        -26.3870   31.2080   -5.7110 N.3    84  LEU84      -0.1245
     10  CA       -25.1580   30.3960   -5.7310 C.3    84  LEU84       0.1561
     11  C        -23.9130   31.1840   -6.1270 C.2    84  LEU84       0.2260
     12  O        -22.8180   30.9210   -5.6170 O.2    84  LEU84      -0.2867
     13  CB       -25.3040   29.1780   -6.6750 C.3    84  LEU84       0.0270
     14  CG       -26.5210   28.2690   -6.4340 C.3    84  LEU84       0.0019
     15  CD1      -26.5750   27.0680   -7.3980 C.3    84  LEU84       0.0001
     16  CD2      -26.5070   27.8110   -4.9810 C.3    84  LEU84       0.0001
     17  N        -21.5290   32.6670   -3.3010 N.3    87  VAL87      -0.1231
     18  CA       -20.7920   31.6510   -2.5310 C.3    87  VAL87       0.1692
     19  C        -19.6920   31.0540   -3.4050 C.2    87  VAL87       0.2592
     20  O        -18.5300   30.9860   -2.9920 O.2    87  VAL87      -0.2718
     21  CB       -21.7170   30.5770   -1.9260 C.3    87  VAL87       0.0266
     22  CG1      -20.8990   29.6140   -1.0660 C.3    87  VAL87       0.0020
     23  CG2      -22.8290   31.2590   -1.0920 C.3    87  VAL87       0.0020
     24  N        -20.0440   30.6970   -4.6360 N.am   88  TYR88      -0.1976
     25  CA       -19.0810   30.1180   -5.5770 C.3    88  TYR88       0.1639
     26  C        -17.8870   31.0520   -5.7460 C.2    88  TYR88       0.2290
     27  O        -16.7320   30.6330   -5.6230 O.2    88  TYR88      -0.2864
     28  CB       -19.7700   29.8590   -6.9200 C.3    88  TYR88       0.0560
     29  CG       -18.8950   29.2020   -7.9440 C.ar   88  TYR88      -0.0198
     30  CD1      -18.7130   27.8060   -7.9550 C.ar   88  TYR88      -0.0009
     31  CD2      -18.2370   29.9620   -8.9210 C.ar   88  TYR88      -0.0009
     32  CE1      -17.8870   27.1920   -8.9020 C.ar   88  TYR88       0.0417
     33  CE2      -17.4220   29.3510   -9.8730 C.ar   88  TYR88       0.0417
     34  CZ       -17.2520   27.9700   -9.8570 C.ar   88  TYR88       0.1957
     35  OH       -16.4460   27.3770  -10.8110 O.3    88  TYR88      -0.2866
     36  N        -15.2670   31.1760   -2.9590 N.3    91  LEU91      -0.1245
     37  CA       -14.4980   29.9440   -2.7020 C.3    91  LEU91       0.1561
     38  C        -13.1870   29.8520   -3.4690 C.2    91  LEU91       0.2260
     39  O        -13.0530   30.4420   -4.5370 O.2    91  LEU91      -0.2867
     40  CB       -15.3390   28.6950   -3.0140 C.3    91  LEU91       0.0270
     41  CG       -16.6090   28.5390   -2.1680 C.3    91  LEU91       0.0019
     42  CD1      -17.4510   27.3990   -2.7270 C.3    91  LEU91       0.0001
     43  CD2      -16.1950   28.2650   -0.7240 C.3    91  LEU91       0.0001
     44  N        -18.7020   22.3500   -4.9160 N.3    99  ALA99      -0.1245
     45  CA       -19.9550   23.0000   -5.2880 C.3    99  ALA99       0.1562
     46  C        -20.4800   22.4440   -6.6190 C.2    99  ALA99       0.2260
     47  O        -21.6610   22.0920   -6.7490 O.2    99  ALA99      -0.2867
     48  CB       -19.7580   24.5130   -5.3720 C.3    99  ALA99       0.0290
     49  N        -21.9590   18.9430   -6.2320 N.3   102  MET102     -0.1230
     50  CA       -23.3300   18.9260   -5.6890 C.3   102  MET102      0.1702
     51  C        -24.3670   19.3270   -6.7390 C.2   102  MET102      0.2592
     52  O        -25.4120   18.6890   -6.8260 O.2   102  MET102     -0.2718
     53  CB       -23.4670   19.8000   -4.4370 C.3   102  MET102      0.0401
     54  CG       -22.6220   19.3200   -3.2700 C.3   102  MET102      0.0596
     55  SD       -23.0140   20.2650   -1.7970 S.3   102  MET102     -0.1393
     56  CE       -24.6800   19.7070   -1.4430 C.3   102  MET102      0.0692
     57  N        -24.0730   20.3680   -7.5240 N.am  103  VAL103     -0.1980
     58  CA       -25.0420   20.8520   -8.5340 C.3   103  VAL103      0.1595
     59  C        -25.2220   19.7990   -9.6320 C.2   103  VAL103      0.2287
     60  O        -26.3460   19.5450  -10.1240 O.2   103  VAL103     -0.2864
     61  CB       -24.6460   22.2170   -9.1090 C.3   103  VAL103      0.0276
     62  CG1      -25.5890   22.6030  -10.2510 C.3   103  VAL103      0.0022
     63  CG2      -24.6900   23.2810   -8.0100 C.3   103  VAL103      0.0022
     64  N        -30.3450   21.8920   -4.7770 N.3   111  VAL111     -0.1245
     65  CA       -29.5390   22.5900   -3.7740 C.3   111  VAL111      0.1561
     66  C        -30.2540   23.8010   -3.1340 C.2   111  VAL111      0.2260
     67  O        -29.6300   24.5310   -2.3580 O.2   111  VAL111     -0.2867
     68  CB       -28.1150   23.0090   -4.3060 C.3   111  VAL111      0.0252
     69  CG1      -27.3630   21.8280   -4.9270 C.3   111  VAL111      0.0019
     70  CG2      -28.1980   24.1490   -5.3020 C.3   111  VAL111      0.0019
     71  N        -30.3030   24.2520    0.7620 N.3   114  PHE114     -0.1241
     72  CA       -28.9810   24.3700    1.3990 C.3   114  PHE114      0.1605
     73  C        -28.5820   25.7990    1.7770 C.2   114  PHE114      0.2264
     74  O        -27.4180   26.0650    2.0830 O.2   114  PHE114     -0.2867
     75  CB       -27.9050   23.7190    0.5330 C.3   114  PHE114      0.0534
     76  CG       -27.9260   22.2130    0.5670 C.ar  114  PHE114     -0.0203
     77  CD1      -28.7390   21.4950   -0.3150 C.ar  114  PHE114     -0.0042
     78  CD2      -27.1370   21.5090    1.4790 C.ar  114  PHE114     -0.0042
     79  CE1      -28.7650   20.1060   -0.2850 C.ar  114  PHE114     -0.0003
     80  CE2      -27.1550   20.1130    1.5110 C.ar  114  PHE114     -0.0003
     81  CZ       -27.9740   19.4150    0.6260 C.ar  114  PHE114     -0.0000
     82  N        -26.2720   26.1030    4.8100 N.3   117  SER117     -0.1202
     83  CA       -24.9370   25.5660    4.5060 C.3   117  SER117      0.2020
     84  C        -24.1760   26.5750    3.6690 C.2   117  SER117      0.2618
     85  O        -23.0110   26.8710    3.9380 O.2   117  SER117     -0.2717
     86  CB       -25.0240   24.2400    3.7470 C.3   117  SER117      0.2103
     87  OG       -25.7290   23.2690    4.5020 O.3   117  SER117     -0.2182
     88  N        -24.8640   27.1120    2.6650 N.am  118  LEU118     -0.1979
     89  CA       -24.2830   28.1010    1.7590 C.3   118  LEU118      0.1596
     90  C        -23.7540   29.3190    2.5210 C.2   118  LEU118      0.2287
     91  O        -22.6370   29.7970    2.2630 O.2   118  LEU118     -0.2864
     92  CB       -25.3380   28.5340    0.7280 C.3   118  LEU118      0.0297
     93  CG       -25.6940   27.4970   -0.3450 C.3   118  LEU118      0.0022
     94  CD1      -26.9460   27.9500   -1.0930 C.3   118  LEU118      0.0001
     95  CD2      -24.5480   27.3290   -1.3070 C.3   118  LEU118      0.0001
     96  N        -20.5810   28.3910    4.3460 N.3   121  LEU121     -0.1245
     97  CA       -19.4840   28.2970    3.3720 C.3   121  LEU121      0.1561
     98  C        -18.9700   29.6920    3.0200 C.2   121  LEU121      0.2260
     99  O        -17.7510   29.9240    3.0230 O.2   121  LEU121     -0.2867
    100  CB       -19.9410   27.5250    2.1200 C.3   121  LEU121      0.0270
    101  CG       -20.1410   26.0140    2.3260 C.3   121  LEU121      0.0019
    102  CD1      -20.7690   25.3650    1.0830 C.3   121  LEU121      0.0001
    103  CD2      -18.8340   25.2750    2.6920 C.3   121  LEU121      0.0001
    104  N        -24.1580   20.4910    6.3600 N.3   133  LEU133     -0.1245
    105  CA       -24.3400   19.7790    5.0880 C.3   133  LEU133      0.1561
    106  C        -24.8680   18.3520    5.2860 C.2   133  LEU133      0.2260
    107  O        -25.5900   17.8380    4.4370 O.2   133  LEU133     -0.2867
    108  CB       -23.0230   19.7150    4.3040 C.3   133  LEU133      0.0270
    109  CG       -22.6430   21.0280    3.6040 C.3   133  LEU133      0.0019
    110  CD1      -21.1580   21.0580    3.2830 C.3   133  LEU133      0.0001
    111  CD2      -23.4710   21.2700    2.3490 C.3   133  LEU133      0.0001
    112  N        -15.2130   20.2940    1.0700 N.3   153  PHE153     -0.1241
    113  CA       -15.5970   21.6010    1.6380 C.3   153  PHE153      0.1605
    114  C        -14.9300   21.8990    2.9810 C.2   153  PHE153      0.2264
    115  O        -14.5880   23.0540    3.2500 O.2   153  PHE153     -0.2867
    116  CB       -17.1000   21.6800    1.8470 C.3   153  PHE153      0.0534
    117  CG       -17.8930   22.0390    0.6150 C.ar  153  PHE153     -0.0203
    118  CD1      -17.6160   23.2090   -0.1230 C.ar  153  PHE153     -0.0042
    119  CD2      -18.9710   21.2420    0.2210 C.ar  153  PHE153     -0.0042
    120  CE1      -18.4020   23.5620   -1.2360 C.ar  153  PHE153     -0.0003
    121  CE2      -19.7560   21.5880   -0.8940 C.ar  153  PHE153     -0.0003
    122  CZ       -19.4640   22.7420   -1.6240 C.ar  153  PHE153     -0.0000
@<TRIPOS>BOND
     1     1     2    1
     2     3     2    1
     3     3     4    2
     4     2     5    1
     5    35    34    1
     6     5     6    1
     7     5     7    1
     8    62    61    1
     9    60    59    2
    10    33    34   ar
    11    33    31   ar
    12    34    32   ar
    13     6     8    1
    14    59    58    1
    15    61    58    1
    16    61    63    1
    17    31    29   ar
    18    32    30   ar
    19    58    57    1
    20    30    29   ar
    21    29    28    1
    22    57    51   am
    23    15    14    1
    24    28    25    1
    25    52    51    2
    26    47    46    2
    27    51    50    1
    28    13    14    1
    29    13    10    1
    30    46    45    1
    31    14    16    1
    32    49    50    1
    33    11    10    1
    34    11    12    2
    35    26    27    2
    36    26    25    1
    37    10     9    1
    38    50    53    1
    39    25    24    1
    40    48    45    1
    41    70    68    1
    42    45    44    1
    43    69    68    1
    44    64    65    1
    45    24    19   am
    46    39    38    2
    47    53    54    1
    48    68    65    1
    49    65    66    1
    50    38    37    1
    51    19    20    2
    52    19    18    1
    53    17    18    1
    54    54    55    1
    55    66    67    2
    56    40    37    1
    57    40    41    1
    58    36    37    1
    59    42    41    1
    60    18    21    1
    61    41    43    1
    62    21    23    1
    63    21    22    1
    64    55    56    1
    65   122   120   ar
    66   122   121   ar
    67    95    93    1
    68   120   118   ar
    69    94    93    1
    70   121   119   ar
    71    93    92    1
    72    77    79   ar
    73    77    76   ar
    74    79    81   ar
    75   118   117   ar
    76   119   117   ar
    77    75    76    1
    78    75    72    1
    79    76    78   ar
    80   117   116    1
    81    81    80   ar
    82    92    89    1
    83    71    72    1
    84   112   113    1
    85   102   101    1
    86    72    73    1
    87    78    80   ar
    88   113   116    1
    89   113   114    1
    90    89    90    1
    91    89    88    1
    92    73    74    2
    93   100   101    1
    94   100    97    1
    95    91    90    2
    96   101   103    1
    97   111   109    1
    98    88    84   am
    99   114   115    2
   100    98    99    2
   101    98    97    1
   102   110   109    1
   103    97    96    1
   104   109   108    1
   105    84    85    2
   106    84    83    1
   107    86    87    1
   108    86    83    1
   109   108   105    1
   110   107   106    2
   111    83    82    1
   112   105   106    1
   113   105   104    1
