@<TRIPOS>MOLECULE
tmp/2rb0A00.pdb
 122 113 0 0 0
SMALL
GASTEIGER

@<TRIPOS>ATOM
      1  N        -24.3360   27.8950  -12.0310 N.3    78  ILE78      -0.1245
      2  CA       -23.9430   28.4650  -10.7450 C.3    78  ILE78       0.1561
      3  C        -23.7120   29.9770  -10.8800 C.2    78  ILE78       0.2260
      4  O        -24.2220   30.7590  -10.0720 O.2    78  ILE78      -0.2867
      5  CB       -22.6930   27.7530  -10.1590 C.3    78  ILE78       0.0252
      6  CG1      -23.0460   26.3420   -9.6620 C.3    78  ILE78       0.0019
      7  CG2      -22.0710   28.5770   -9.0270 C.3    78  ILE78       0.0019
      8  CD1      -21.8250   25.4780   -9.2870 C.3    78  ILE78       0.0001
      9  N        -26.2190   31.3860   -5.6610 N.3    84  LEU84      -0.1245
     10  CA       -25.0430   30.5180   -5.7060 C.3    84  LEU84       0.1561
     11  C        -23.7580   31.2370   -6.1120 C.2    84  LEU84       0.2260
     12  O        -22.6890   30.9480   -5.5670 O.2    84  LEU84      -0.2867
     13  CB       -25.2900   29.3190   -6.6340 C.3    84  LEU84       0.0270
     14  CG       -26.5080   28.4370   -6.3300 C.3    84  LEU84       0.0019
     15  CD1      -26.6010   27.2810   -7.3280 C.3    84  LEU84       0.0001
     16  CD2      -26.4810   27.9220   -4.8870 C.3    84  LEU84       0.0001
     17  N        -21.3850   32.8340   -3.3090 N.3    87  VAL87      -0.1231
     18  CA       -20.7410   31.7910   -2.5070 C.3    87  VAL87       0.1692
     19  C        -19.6330   31.1150   -3.3350 C.2    87  VAL87       0.2592
     20  O        -18.5010   30.9750   -2.8700 O.2    87  VAL87      -0.2718
     21  CB       -21.7550   30.7500   -1.9510 C.3    87  VAL87       0.0266
     22  CG1      -21.0650   29.7980   -0.9670 C.3    87  VAL87       0.0020
     23  CG2      -22.9360   31.4480   -1.2630 C.3    87  VAL87       0.0020
     24  N        -19.9580   30.7280   -4.5660 N.am   88  TYR88      -0.1976
     25  CA       -18.9800   30.1140   -5.4670 C.3    88  TYR88       0.1639
     26  C        -17.7310   30.9920   -5.6300 C.2    88  TYR88       0.2290
     27  O        -16.6010   30.5160   -5.4730 O.2    88  TYR88      -0.2864
     28  CB       -19.6150   29.8130   -6.8360 C.3    88  TYR88       0.0560
     29  CG       -18.6940   29.1020   -7.8100 C.ar   88  TYR88      -0.0198
     30  CD1      -18.5630   27.7110   -7.7860 C.ar   88  TYR88      -0.0009
     31  CD2      -17.9580   29.8190   -8.7590 C.ar   88  TYR88      -0.0009
     32  CE1      -17.7150   27.0480   -8.6770 C.ar   88  TYR88       0.0417
     33  CE2      -17.1050   29.1650   -9.6470 C.ar   88  TYR88       0.0417
     34  CZ       -16.9900   27.7830   -9.6010 C.ar   88  TYR88       0.1957
     35  OH       -16.1520   27.1290  -10.4790 O.3    88  TYR88      -0.2866
     36  N        -15.1710   31.0840   -2.8590 N.3    91  LEU91      -0.1245
     37  CA       -14.4340   29.8510   -2.6230 C.3    91  LEU91       0.1561
     38  C        -13.1190   29.8140   -3.3880 C.2    91  LEU91       0.2260
     39  O        -12.9750   30.4610   -4.4270 O.2    91  LEU91      -0.2867
     40  CB       -15.2840   28.6330   -3.0090 C.3    91  LEU91       0.0270
     41  CG       -16.5740   28.3590   -2.2260 C.3    91  LEU91       0.0019
     42  CD1      -17.2970   27.1850   -2.8570 C.3    91  LEU91       0.0001
     43  CD2      -16.2900   28.1060   -0.7350 C.3    91  LEU91       0.0001
     44  N        -18.5230   22.3700   -4.9180 N.3    99  ALA99      -0.1245
     45  CA       -19.7550   23.0720   -5.2770 C.3    99  ALA99       0.1562
     46  C        -20.3500   22.5610   -6.5960 C.2    99  ALA99       0.2260
     47  O        -21.5470   22.2700   -6.6780 O.2    99  ALA99      -0.2867
     48  CB       -19.5060   24.5920   -5.3360 C.3    99  ALA99       0.0290
     49  N        -21.9160   18.9660   -6.2640 N.3   102  MET102     -0.1230
     50  CA       -23.2820   19.0030   -5.7310 C.3   102  MET102      0.1702
     51  C        -24.3260   19.3720   -6.7900 C.2   102  MET102      0.2592
     52  O        -25.3490   18.6980   -6.9140 O.2   102  MET102     -0.2718
     53  CB       -23.3650   19.9420   -4.5260 C.3   102  MET102      0.0401
     54  CG       -22.6610   19.3960   -3.2910 C.3   102  MET102      0.0596
     55  SD       -22.9320   20.4160   -1.8390 S.3   102  MET102     -0.1393
     56  CE       -24.6190   19.9970   -1.4260 C.3   102  MET102      0.0692
     57  N        -24.0470   20.4210   -7.5590 N.am  103  VAL103     -0.1980
     58  CA       -24.9590   20.8870   -8.6100 C.3   103  VAL103      0.1595
     59  C        -25.1060   19.8550   -9.7400 C.2   103  VAL103      0.2287
     60  O        -26.2040   19.6440  -10.2570 O.2   103  VAL103     -0.2864
     61  CB       -24.5530   22.2870   -9.1330 C.3   103  VAL103      0.0276
     62  CG1      -25.3810   22.6930  -10.3550 C.3   103  VAL103      0.0022
     63  CG2      -24.7280   23.3240   -8.0090 C.3   103  VAL103      0.0022
     64  N        -30.3730   22.0270   -4.5620 N.3   111  VAL111     -0.1245
     65  CA       -29.5560   22.7090   -3.5530 C.3   111  VAL111      0.1561
     66  C        -30.1920   23.9910   -2.9870 C.2   111  VAL111      0.2260
     67  O        -29.5420   24.7490   -2.2640 O.2   111  VAL111     -0.2867
     68  CB       -28.0930   22.9670   -4.0380 C.3   111  VAL111      0.0252
     69  CG1      -27.3510   21.6480   -4.2390 C.3   111  VAL111      0.0019
     70  CG2      -28.0690   23.8020   -5.3100 C.3   111  VAL111      0.0019
     71  N        -30.2700   24.4470    0.8170 N.3   114  PHE114     -0.1241
     72  CA       -28.9470   24.5360    1.4400 C.3   114  PHE114      0.1605
     73  C        -28.5270   25.9590    1.8280 C.2   114  PHE114      0.2264
     74  O        -27.3370   26.2260    2.0170 O.2   114  PHE114     -0.2867
     75  CB       -27.8960   23.8880    0.5290 C.3   114  PHE114      0.0534
     76  CG       -27.9310   22.3850    0.5370 C.ar  114  PHE114     -0.0203
     77  CD1      -28.8500   21.6890   -0.2440 C.ar  114  PHE114     -0.0042
     78  CD2      -27.0420   21.6630    1.3260 C.ar  114  PHE114     -0.0042
     79  CE1      -28.8860   20.2970   -0.2320 C.ar  114  PHE114     -0.0003
     80  CE2      -27.0680   20.2740    1.3430 C.ar  114  PHE114     -0.0003
     81  CZ       -27.9890   19.5890    0.5620 C.ar  114  PHE114     -0.0000
     82  N        -26.2010   26.2170    4.8850 N.3   117  SER117     -0.1202
     83  CA       -24.8740   25.7010    4.5080 C.3   117  SER117      0.2020
     84  C        -24.1120   26.7120    3.6540 C.2   117  SER117      0.2618
     85  O        -22.9200   26.9520    3.8700 O.2   117  SER117     -0.2717
     86  CB       -24.9940   24.3790    3.7450 C.3   117  SER117      0.2103
     87  OG       -25.3820   23.3140    4.5990 O.3   117  SER117     -0.2182
     88  N        -24.8160   27.3000    2.6870 N.am  118  LEU118     -0.1979
     89  CA       -24.2420   28.3040    1.7930 C.3   118  LEU118      0.1596
     90  C        -23.6950   29.5040    2.5580 C.2   118  LEU118      0.2287
     91  O        -22.6060   29.9920    2.2560 O.2   118  LEU118     -0.2864
     92  CB       -25.2860   28.7660    0.7730 C.3   118  LEU118      0.0297
     93  CG       -25.5820   27.8280   -0.3950 C.3   118  LEU118      0.0022
     94  CD1      -26.9690   28.1310   -0.9500 C.3   118  LEU118      0.0001
     95  CD2      -24.5190   27.9780   -1.4870 C.3   118  LEU118      0.0001
     96  N        -20.5020   28.4240    4.3980 N.3   121  LEU121     -0.1245
     97  CA       -19.4180   28.3180    3.4210 C.3   121  LEU121      0.1561
     98  C        -18.8570   29.6920    3.0250 C.2   121  LEU121      0.2260
     99  O        -17.6330   29.8770    3.0030 O.2   121  LEU121     -0.2867
    100  CB       -19.8620   27.5180    2.1830 C.3   121  LEU121      0.0270
    101  CG       -20.0890   26.0030    2.3400 C.3   121  LEU121      0.0019
    102  CD1      -20.7660   25.4170    1.1030 C.3   121  LEU121      0.0001
    103  CD2      -18.7960   25.2370    2.6610 C.3   121  LEU121      0.0001
    104  N        -24.1980   20.5580    6.2410 N.3   133  LEU133     -0.1245
    105  CA       -24.3770   19.8540    4.9630 C.3   133  LEU133      0.1561
    106  C        -24.8620   18.4180    5.1350 C.2   133  LEU133      0.2260
    107  O        -25.6260   17.9130    4.3100 O.2   133  LEU133     -0.2867
    108  CB       -23.0730   19.8740    4.1430 C.3   133  LEU133      0.0270
    109  CG       -22.6900   21.1850    3.4420 C.3   133  LEU133      0.0019
    110  CD1      -21.2150   21.1800    3.0380 C.3   133  LEU133      0.0001
    111  CD2      -23.5840   21.4180    2.2300 C.3   133  LEU133      0.0001
    112  N        -15.1230   20.2880    1.1870 N.3   153  PHE153     -0.1241
    113  CA       -15.5450   21.5880    1.7220 C.3   153  PHE153      0.1605
    114  C        -14.8790   21.8910    3.0690 C.2   153  PHE153      0.2264
    115  O        -14.4360   23.0180    3.3190 O.2   153  PHE153     -0.2867
    116  CB       -17.0700   21.6500    1.8880 C.3   153  PHE153      0.0534
    117  CG       -17.8220   22.0390    0.6380 C.ar  153  PHE153     -0.0203
    118  CD1      -17.5310   23.2270   -0.0380 C.ar  153  PHE153     -0.0042
    119  CD2      -18.8530   21.2320    0.1610 C.ar  153  PHE153     -0.0042
    120  CE1      -18.2440   23.5940   -1.1850 C.ar  153  PHE153     -0.0003
    121  CE2      -19.5840   21.5950   -0.9820 C.ar  153  PHE153     -0.0003
    122  CZ       -19.2750   22.7770   -1.6550 C.ar  153  PHE153     -0.0000
@<TRIPOS>BOND
     1     1     2    1
     2     3     2    1
     3     3     4    2
     4     2     5    1
     5    35    34    1
     6    62    61    1
     7    60    59    2
     8     5     6    1
     9     5     7    1
    10    59    58    1
    11     6     8    1
    12    33    34   ar
    13    33    31   ar
    14    34    32   ar
    15    61    58    1
    16    61    63    1
    17    31    29   ar
    18    32    30   ar
    19    58    57    1
    20    29    30   ar
    21    29    28    1
    22    57    51   am
    23    15    14    1
    24    52    51    2
    25    28    25    1
    26    51    50    1
    27    47    46    2
    28    13    14    1
    29    13    10    1
    30    46    45    1
    31    14    16    1
    32    49    50    1
    33    11    10    1
    34    11    12    2
    35    50    53    1
    36    10     9    1
    37    26    27    2
    38    26    25    1
    39    25    24    1
    40    48    45    1
    41    70    68    1
    42    45    44    1
    43    24    19   am
    44    64    65    1
    45    53    54    1
    46    39    38    2
    47    69    68    1
    48    68    65    1
    49    65    66    1
    50    38    37    1
    51    19    20    2
    52    19    18    1
    53    17    18    1
    54    54    55    1
    55    40    37    1
    56    40    41    1
    57    66    67    2
    58    36    37    1
    59    42    41    1
    60    18    21    1
    61    41    43    1
    62    21    23    1
    63    21    22    1
    64    55    56    1
    65   122   120   ar
    66   122   121   ar
    67    95    93    1
    68   120   118   ar
    69   121   119   ar
    70    94    93    1
    71    93    92    1
    72    77    79   ar
    73    77    76   ar
    74    79    81   ar
    75   118   117   ar
    76   119   117   ar
    77    75    76    1
    78    75    72    1
    79    76    78   ar
    80    81    80   ar
    81   117   116    1
    82    92    89    1
    83    71    72    1
    84   102   101    1
    85   112   113    1
    86    78    80   ar
    87    72    73    1
    88   113   116    1
    89   113   114    1
    90    89    90    1
    91    89    88    1
    92    73    74    2
    93   100   101    1
    94   100    97    1
    95   111   109    1
    96    91    90    2
    97   101   103    1
    98    88    84   am
    99    99    98    2
   100    98    97    1
   101   110   109    1
   102   114   115    2
   103    97    96    1
   104   109   108    1
   105    84    85    2
   106    84    83    1
   107    86    83    1
   108    86    87    1
   109   108   105    1
   110   107   106    2
   111    83    82    1
   112   105   106    1
   113   105   104    1
