@<TRIPOS>MOLECULE
tmp/2rb2A00.pdb
 122 113 0 0 0
SMALL
GASTEIGER

@<TRIPOS>ATOM
      1  N         23.8020    7.2060   12.1890 N.3    78  ILE78      -0.1245
      2  CA        23.4850    6.6130   10.8950 C.3    78  ILE78       0.1561
      3  C         22.2800    5.6840   11.0260 C.2    78  ILE78       0.2260
      4  O         21.3450    5.7440   10.2140 O.2    78  ILE78      -0.2867
      5  CB        24.7050    5.8570   10.3040 C.3    78  ILE78       0.0252
      6  CG1       25.7440    6.8540    9.7830 C.3    78  ILE78       0.0019
      7  CG2       24.2730    4.8840    9.1930 C.3    78  ILE78       0.0019
      8  CD1       27.1110    6.2280    9.4840 C.3    78  ILE78       0.0001
      9  N         19.8520    7.0930    5.7010 N.3    84  LEU84      -0.1245
     10  CA        21.1810    6.4850    5.7270 C.3    84  LEU84       0.1561
     11  C         21.2100    5.0120    6.1460 C.2    84  LEU84       0.2260
     12  O         22.0100    4.2370    5.6190 O.2    84  LEU84      -0.2867
     13  CB        22.1130    7.2960    6.6270 C.3    84  LEU84       0.0270
     14  CG        22.2350    8.7890    6.3000 C.3    84  LEU84       0.0019
     15  CD1       23.1520    9.4570    7.3020 C.3    84  LEU84       0.0001
     16  CD2       22.7420    8.9910    4.8750 C.3    84  LEU84       0.0001
     17  N         21.0520    2.1760    3.3760 N.3    87  VAL87      -0.1231
     18  CA        22.2830    2.0730    2.5930 C.3    87  VAL87       0.1692
     19  C         23.4000    1.4500    3.4330 C.2    87  VAL87       0.2592
     20  O         24.0910    0.5280    2.9950 O.2    87  VAL87      -0.2718
     21  CB        22.7180    3.4360    1.9970 C.3    87  VAL87       0.0266
     22  CG1       23.9020    3.2470    1.0640 C.3    87  VAL87       0.0020
     23  CG2       21.5410    4.0930    1.2590 C.3    87  VAL87       0.0020
     24  N         23.5630    1.9410    4.6530 N.am   88  TYR88      -0.1976
     25  CA        24.5690    1.3980    5.5510 C.3    88  TYR88       0.1639
     26  C         24.3990   -0.1080    5.7350 C.2    88  TYR88       0.2290
     27  O         25.3570   -0.8750    5.5960 O.2    88  TYR88      -0.2864
     28  CB        24.4830    2.1200    6.8880 C.3    88  TYR88       0.0560
     29  CG        25.4880    1.6870    7.9130 C.ar   88  TYR88      -0.0198
     30  CD1       26.7810    2.2300    7.9300 C.ar   88  TYR88      -0.0009
     31  CD2       25.1520    0.7440    8.8840 C.ar   88  TYR88      -0.0009
     32  CE1       27.7070    1.8420    8.8900 C.ar   88  TYR88       0.0417
     33  CE2       26.0660    0.3490    9.8440 C.ar   88  TYR88       0.0417
     34  CZ        27.3490    0.8980    9.8390 C.ar   88  TYR88       0.1957
     35  OH        28.2650    0.5120   10.7910 O.3    88  TYR88      -0.2866
     36  N         25.5810   -2.4810    2.9840 N.3    91  LEU91      -0.1245
     37  CA        27.0180   -2.5290    2.7000 C.3    91  LEU91       0.1561
     38  C         27.7530   -3.6160    3.4730 C.2    91  LEU91       0.2260
     39  O         27.3140   -4.0340    4.5400 O.2    91  LEU91      -0.2867
     40  CB        27.6530   -1.1750    3.0240 C.3    91  LEU91       0.0270
     41  CG        27.2160    0.0170    2.1730 C.3    91  LEU91       0.0019
     42  CD1       27.7780    1.2920    2.7680 C.3    91  LEU91       0.0001
     43  CD2       27.6940   -0.1620    0.7370 C.3    91  LEU91       0.0001
     44  N         31.5680    4.8620    4.9530 N.3    99  ALA99      -0.1245
     45  CA        30.3700    5.6240    5.2820 C.3    99  ALA99       0.1562
     46  C         30.5300    6.3640    6.6090 C.2    99  ALA99       0.2260
     47  O         30.2050    7.5540    6.7200 O.2    99  ALA99      -0.2867
     48  CB        29.1600    4.7020    5.3260 C.3    99  ALA99       0.0290
     49  N         32.8250    9.4310    6.2270 N.3   102  MET102     -0.1230
     50  CA        32.1780   10.6230    5.6780 C.3   102  MET102      0.1702
     51  C         31.2880   11.3200    6.7080 C.2   102  MET102      0.2592
     52  O         31.2770   12.5430    6.7990 O.2   102  MET102     -0.2718
     53  CB        31.3590   10.2850    4.4350 C.3   102  MET102      0.0401
     54  CG        32.1990    9.8640    3.2460 C.3   102  MET102      0.0596
     55  SD        31.1940    9.6410    1.7610 S.3   102  MET102     -0.1393
     56  CE        30.7440   11.3300    1.3450 C.3   102  MET102      0.0692
     57  N         30.5290   10.5420    7.4760 N.am  103  VAL103     -0.1980
     58  CA        29.6200   11.1460    8.4440 C.3   103  VAL103      0.1595
     59  C         30.4140   11.7930    9.5870 C.2   103  VAL103      0.2287
     60  O         30.0540   12.8630   10.0760 O.2   103  VAL103     -0.2864
     61  CB        28.5910   10.1340    8.9520 C.3   103  VAL103      0.0276
     62  CG1       27.7640   10.7370   10.0850 C.3   103  VAL103      0.0022
     63  CG2       27.6740    9.7100    7.7970 C.3   103  VAL103      0.0022
     64  N         26.0010   15.2980    4.5450 N.3   111  VAL111     -0.1245
     65  CA        25.7780   14.3220    3.4760 C.3   111  VAL111      0.1561
     66  C         24.3670   14.3550    2.8860 C.2   111  VAL111      0.2260
     67  O         24.0110   13.4710    2.1100 O.2   111  VAL111     -0.2867
     68  CB        26.1650   12.8600    3.8810 C.3   111  VAL111      0.0252
     69  CG1       27.6440   12.7640    4.2160 C.3   111  VAL111      0.0019
     70  CG2       25.3070   12.3450    5.0400 C.3   111  VAL111      0.0019
     71  N         23.9680   14.0240   -0.8530 N.3   114  PHE114     -0.1241
     72  CA        24.5560   12.8130   -1.4660 C.3   114  PHE114      0.1605
     73  C         23.5210   11.7470   -1.8660 C.2   114  PHE114      0.2264
     74  O         23.8680   10.5910   -2.1360 O.2   114  PHE114     -0.2867
     75  CB        25.6590   12.2180   -0.5750 C.3   114  PHE114      0.0534
     76  CG        26.9490   12.9930   -0.6200 C.ar  114  PHE114     -0.0203
     77  CD1       27.0830   14.1870    0.0780 C.ar  114  PHE114     -0.0042
     78  CD2       28.0210   12.5420   -1.3880 C.ar  114  PHE114     -0.0042
     79  CE1       28.2670   14.9070    0.0320 C.ar  114  PHE114     -0.0003
     80  CE2       29.2140   13.2590   -1.4360 C.ar  114  PHE114     -0.0003
     81  CZ        29.3320   14.4410   -0.7270 C.ar  114  PHE114     -0.0000
     82  N         24.4440    9.5760   -4.8740 N.3   117  SER117     -0.1202
     83  CA        25.5540    8.6680   -4.5490 C.3   117  SER117      0.2020
     84  C         25.0600    7.5090   -3.6890 C.2   117  SER117      0.2618
     85  O         25.4430    6.3510   -3.8950 O.2   117  SER117     -0.2717
     86  CB        26.6720    9.3920   -3.7900 C.3   117  SER117      0.2103
     87  OG        27.1530   10.5180   -4.5020 O.3   117  SER117     -0.2182
     88  N         24.2250    7.8420   -2.7110 N.am  118  LEU118     -0.1979
     89  CA        23.6470    6.8430   -1.8120 C.3   118  LEU118      0.1596
     90  C         22.8740    5.7740   -2.5840 C.2   118  LEU118      0.2287
     91  O         23.0170    4.5790   -2.2980 O.2   118  LEU118     -0.2864
     92  CB        22.7390    7.5240   -0.7810 C.3   118  LEU118      0.0297
     93  CG        23.4470    8.3310    0.3120 C.3   118  LEU118      0.0022
     94  CD1       22.4610    9.2480    1.0240 C.3   118  LEU118      0.0001
     95  CD2       24.1460    7.4120    1.3170 C.3   118  LEU118      0.0001
     96  N         25.3210    3.5070   -4.3650 N.3   121  LEU121     -0.1245
     97  CA        25.9250    2.5920   -3.3940 C.3   121  LEU121      0.1561
     98  C         24.9790    1.4620   -3.0060 C.2   121  LEU121      0.2260
     99  O         25.3900    0.3010   -2.9630 O.2   121  LEU121     -0.2867
    100  CB        26.4110    3.3500   -2.1540 C.3   121  LEU121      0.0270
    101  CG        27.5950    4.2970   -2.3850 C.3   121  LEU121      0.0019
    102  CD1       27.8050    5.2100   -1.1760 C.3   121  LEU121      0.0001
    103  CD2       28.8890    3.5240   -2.7130 C.3   121  LEU121      0.0001
    104  N         30.3960   10.5320   -6.2820 N.3   133  LEU133     -0.1245
    105  CA        30.9200   11.0310   -5.0050 C.3   133  LEU133      0.1561
    106  C         31.8960   12.1880   -5.1790 C.2   133  LEU133      0.2260
    107  O         31.9370   13.0920   -4.3450 O.2   133  LEU133     -0.2867
    108  CB        31.5760    9.9000   -4.2030 C.3   133  LEU133      0.0270
    109  CG        30.6400    8.9110   -3.4940 C.3   133  LEU133      0.0019
    110  CD1       31.3530    7.5980   -3.1810 C.3   133  LEU133      0.0001
    111  CD2       30.0350    9.5080   -2.2240 C.3   133  LEU133      0.0001
    112  N         35.0610    2.8860   -1.0850 N.3   153  PHE153     -0.1241
    113  CA        33.7360    2.5650   -1.6310 C.3   153  PHE153      0.1605
    114  C         33.8050    1.8390   -2.9720 C.2   153  PHE153      0.2264
    115  O         32.9670    0.9790   -3.2560 O.2   153  PHE153     -0.2867
    116  CB        32.9150    3.8400   -1.8330 C.3   153  PHE153      0.0534
    117  CG        32.2070    4.3380   -0.6040 C.ar  153  PHE153     -0.0203
    118  CD1       31.3160    3.5190    0.1040 C.ar  153  PHE153     -0.0042
    119  CD2       32.3970    5.6490   -0.1770 C.ar  153  PHE153     -0.0042
    120  CE1       30.6300    4.0040    1.2150 C.ar  153  PHE153     -0.0003
    121  CE2       31.7140    6.1420    0.9250 C.ar  153  PHE153     -0.0003
    122  CZ        30.8320    5.3180    1.6330 C.ar  153  PHE153     -0.0000
@<TRIPOS>BOND
     1   104   105    1
     2   106   105    1
     3   106   107    2
     4   105   108    1
     5    82    83    1
     6    83    86    1
     7    83    84    1
     8    87    86    1
     9    96    97    1
    10   108   109    1
    11    85    84    2
    12    84    88   am
    13   109   110    1
    14   109   111    1
    15    97    98    1
    16    97   100    1
    17   115   114    2
    18    98    99    2
    19   114   113    1
    20   103   101    1
    21    88    89    1
    22    90    91    2
    23    90    89    1
    24   101   100    1
    25   101   102    1
    26    74    73    2
    27    73    72    1
    28   116   113    1
    29   116   117    1
    30    89    92    1
    31   113   112    1
    32    72    71    1
    33    72    75    1
    34    80    78   ar
    35    80    81   ar
    36    78    76   ar
    37    92    93    1
    38    81    79   ar
    39    76    75    1
    40    76    77   ar
    41   117   119   ar
    42   117   118   ar
    43   119   121   ar
    44    79    77   ar
    45   118   120   ar
    46    93    94    1
    47    93    95    1
    48    43    41    1
    49   121   122   ar
    50    22    21    1
    51   120   122   ar
    52    23    21    1
    53    56    55    1
    54    55    54    1
    55    21    18    1
    56    67    66    2
    57    41    42    1
    58    41    40    1
    59    18    17    1
    60    18    19    1
    61    37    36    1
    62    37    40    1
    63    37    38    1
    64    66    65    1
    65    20    19    2
    66    54    53    1
    67    19    24   am
    68    38    39    2
    69    65    68    1
    70    65    64    1
    71    68    69    1
    72    68    70    1
    73    53    50    1
    74    24    25    1
    75    16    14    1
    76    44    45    1
    77    45    48    1
    78    45    46    1
    79    25    26    1
    80    25    28    1
    81    27    26    2
    82    12    11    2
    83    50    49    1
    84    50    51    1
    85     9    10    1
    86    10    11    1
    87    10    13    1
    88    14    13    1
    89    14    15    1
    90    46    47    2
    91    51    52    2
    92    51    57   am
    93    28    29    1
    94    57    58    1
    95    63    61    1
    96    29    30   ar
    97    29    31   ar
    98    30    32   ar
    99    58    61    1
   100    58    59    1
   101    31    33   ar
   102    32    34   ar
   103    61    62    1
   104     7     5    1
   105     8     6    1
   106    59    60    2
   107     6     5    1
   108    34    33   ar
   109    34    35    1
   110     4     3    2
   111     5     2    1
   112     2     3    1
   113     2     1    1
