@<TRIPOS>MOLECULE
tmp/2rbdA00.pdb
 128 119 0 0 0
SMALL
GASTEIGER

@<TRIPOS>ATOM
      1  N         17.5530   30.3680   72.9660 N.3    18  TYR18      -0.1241
      2  CA        16.4510   29.5330   72.5210 C.3    18  TYR18       0.1605
      3  C         15.8790   30.0180   71.1830 C.2    18  TYR18       0.2264
      4  O         15.5760   29.2720   70.2550 O.2    18  TYR18      -0.2867
      5  CB        15.3830   29.4800   73.6320 C.3    18  TYR18       0.0534
      6  CG        14.2850   28.4620   73.4220 C.ar   18  TYR18      -0.0201
      7  CD1       13.1840   28.7560   72.6340 C.ar   18  TYR18      -0.0009
      8  CD2       14.3420   27.1860   74.0200 C.ar   18  TYR18      -0.0009
      9  CE1       12.1660   27.8490   72.4900 C.ar   18  TYR18       0.0417
     10  CE2       13.3270   26.2810   73.8450 C.ar   18  TYR18       0.0417
     11  CZ        12.2520   26.5940   73.0610 C.ar   18  TYR18       0.1957
     12  OH        11.1820   25.7270   72.8850 O.3    18  TYR18      -0.2866
     13  N         18.3750   29.2360   68.5030 N.3    21  THR21      -0.1203
     14  CA        18.2670   27.7970   68.2170 C.3    21  THR21       0.1994
     15  C         17.0700   27.5260   67.2890 C.2    21  THR21       0.2617
     16  O         17.2160   26.8400   66.2610 O.2    21  THR21      -0.2717
     17  CB        18.2360   26.9890   69.5000 C.3    21  THR21       0.1784
     18  OG1       19.4490   27.2680   70.2230 O.3    21  THR21      -0.2211
     19  CG2       18.1750   25.4780   69.1600 C.3    21  THR21       0.0376
     20  N         15.9180   28.0980   67.6250 N.am   22  ASN22      -0.1974
     21  CA        14.7370   27.9690   66.7770 C.3    22  ASN22       0.1688
     22  C         15.0170   28.4950   65.3570 C.2    22  ASN22       0.2292
     23  O         14.6190   27.8610   64.3810 O.2    22  ASN22      -0.2864
     24  CB        13.5150   28.6810   67.3500 C.3    22  ASN22       0.1181
     25  CG        12.7450   27.8500   68.3750 C.2    22  ASN22       0.2629
     26  OD1       13.1550   26.7370   68.7080 O.2    22  ASN22      -0.2716
     27  ND2       11.6300   28.3910   68.8700 N.am   22  ASN22      -0.0877
     28  N         17.0280   25.9340   63.5430 N.3    25  LEU25      -0.1245
     29  CA        16.2370   24.7140   63.2620 C.3    25  LEU25       0.1561
     30  C         15.1770   24.9380   62.1890 C.2    25  LEU25       0.2260
     31  O         14.9940   24.0980   61.3380 O.2    25  LEU25      -0.2867
     32  CB        15.6160   24.1450   64.5360 C.3    25  LEU25       0.0270
     33  CG        16.5730   23.5830   65.6010 C.3    25  LEU25       0.0019
     34  CD1       15.7250   23.0930   66.7870 C.3    25  LEU25       0.0001
     35  CD2       17.4190   22.4150   65.0320 C.3    25  LEU25       0.0001
     36  N         15.2560   22.6290   58.9610 N.3    29  TYR29      -0.1241
     37  CA        14.0650   21.8660   58.6630 C.3    29  TYR29       0.1605
     38  C         13.4610   22.2840   57.3050 C.2    29  TYR29       0.2264
     39  O         12.9170   21.4630   56.6090 O.2    29  TYR29      -0.2867
     40  CB        13.0150   22.0070   59.7650 C.3    29  TYR29       0.0534
     41  CG        13.3500   21.3370   61.0660 C.ar   29  TYR29      -0.0201
     42  CD1       14.6280   20.8940   61.3670 C.ar   29  TYR29      -0.0009
     43  CD2       12.3990   21.2640   62.0540 C.ar   29  TYR29      -0.0009
     44  CE1       14.9150   20.2990   62.6150 C.ar   29  TYR29       0.0417
     45  CE2       12.6820   20.6750   63.2900 C.ar   29  TYR29       0.0417
     46  CZ        13.9190   20.2150   63.5560 C.ar   29  TYR29       0.1957
     47  OH        14.1710   19.6670   64.8020 O.3    29  TYR29      -0.2866
     48  N          6.4240   21.2540   62.8640 N.3    48  ALA48      -0.1245
     49  CA         7.4980   21.7320   63.7090 C.3    48  ALA48       0.1562
     50  C          7.9110   23.1620   63.3950 C.2    48  ALA48       0.2260
     51  O          8.1300   23.9520   64.3210 O.2    48  ALA48      -0.2867
     52  CB         8.7060   20.8090   63.6320 C.3    48  ALA48       0.0290
     53  N          5.2410   25.4980   64.6750 N.3    51  ALA51      -0.1245
     54  CA         5.3050   25.5340   66.1460 C.3    51  ALA51       0.1562
     55  C          6.4400   26.4330   66.6240 C.2    51  ALA51       0.2260
     56  O          6.2650   27.2510   67.5280 O.2    51  ALA51      -0.2867
     57  CB         5.4300   24.1200   66.7250 C.3    51  ALA51       0.0290
     58  N          6.3780   29.9650   68.7820 N.3    54  GLU54      -0.1245
     59  CA         7.2460   30.2260   69.9220 C.3    54  GLU54       0.1567
     60  C          8.0270   31.5250   69.6910 C.2    54  GLU54       0.2260
     61  O          8.1170   32.3910   70.5760 O.2    54  GLU54      -0.2867
     62  CB         8.1980   29.0790   70.1660 C.3    54  GLU54       0.0388
     63  CG         7.5250   27.8080   70.6310 C.3    54  GLU54       0.1160
     64  CD         8.5250   26.7310   70.9670 C.2    54  GLU54       0.3649
     65  OE1        9.7210   26.8580   70.6690 O.co2  54  GLU54      -0.2457
     66  OE2        8.0940   25.6900   71.4950 O.co2  54  GLU54      -0.2457
     67  N         16.3900   16.6020   68.3790 N.3   101  ASP101     -0.1225
     68  CA        16.1940   18.0280   68.6080 C.3   101  ASP101      0.1805
     69  C         15.0320   18.2930   69.6040 C.2   101  ASP101      0.2597
     70  O         15.1130   19.1620   70.5010 O.2   101  ASP101     -0.2718
     71  CB        15.8820   18.7970   67.2990 C.3   101  ASP101      0.1424
     72  CG        17.0450   18.8610   66.3080 C.2   101  ASP101      0.3668
     73  OD1       18.2250   18.8050   66.7420 O.co2 101  ASP101     -0.2456
     74  OD2       16.7590   18.9640   65.0920 O.co2 101  ASP101     -0.2456
     75  N         13.9330   17.5790   69.4070 N.am  102  VAL102     -0.1980
     76  CA        12.7870   17.7040   70.2730 C.3   102  VAL102      0.1595
     77  C         13.1480   17.3110   71.7070 C.2   102  VAL102      0.2287
     78  O         12.7740   17.9860   72.6710 O.2   102  VAL102     -0.2864
     79  CB        11.5600   16.9070   69.7290 C.3   102  VAL102      0.0276
     80  CG1       10.4060   16.9040   70.7540 C.3   102  VAL102      0.0022
     81  CG2       11.1270   17.5150   68.4040 C.3   102  VAL102      0.0022
     82  N         15.1410   20.0210   73.2190 N.3   105  GLY105     -0.1225
     83  CA        14.2550   21.1780   73.5010 C.3   105  GLY105      0.1811
     84  C         13.4410   21.0470   74.7620 C.2   105  GLY105      0.2280
     85  O         13.2340   22.0150   75.4670 O.2   105  GLY105     -0.2866
     86  N         15.8980   21.8720   77.4670 N.3   108  THR108     -0.1218
     87  CA        16.1250   23.3130   77.5040 C.3   108  THR108      0.1862
     88  C         14.9570   24.0730   78.1320 C.2   108  THR108      0.2287
     89  O         15.1500   24.9460   78.9710 O.2   108  THR108     -0.2866
     90  CB        16.4170   23.8500   76.1110 C.3   108  THR108      0.1770
     91  OG1       17.4720   23.0710   75.5200 O.3   108  THR108     -0.2211
     92  CG2       16.8120   25.3350   76.1920 C.3   108  THR108      0.0375
     93  N          5.5130   25.9480   76.3380 N.3   127  PHE127     -0.1241
     94  CA         6.2990   25.3980   75.2690 C.3   127  PHE127      0.1605
     95  C          6.5690   23.9100   75.5250 C.2   127  PHE127      0.2264
     96  O          6.5260   23.0900   74.6140 O.2   127  PHE127     -0.2867
     97  CB         7.6640   26.0950   75.1060 C.3   127  PHE127      0.0534
     98  CG         7.6270   27.5530   74.6250 C.ar  127  PHE127     -0.0203
     99  CD1        6.4590   28.2100   74.2580 C.ar  127  PHE127     -0.0042
    100  CD2        8.8530   28.2350   74.4940 C.ar  127  PHE127     -0.0042
    101  CE1        6.5040   29.5350   73.8150 C.ar  127  PHE127     -0.0003
    102  CE2        8.9000   29.5580   74.0540 C.ar  127  PHE127     -0.0003
    103  CZ         7.7330   30.2050   73.7240 C.ar  127  PHE127     -0.0000
    104  N          3.5330   21.6080   74.7900 N.3   129  ALA129     -0.1231
    105  CA         3.3560   21.4070   73.3700 C.3   129  ALA129      0.1694
    106  C          4.4170   20.4740   72.8020 C.2   129  ALA129      0.2591
    107  O          4.1150   19.6420   71.9680 O.2   129  ALA129     -0.2718
    108  CB         3.3950   22.7510   72.6200 C.3   129  ALA129      0.0304
    109  N          5.6590   20.6200   73.2570 N.am  130  LYS130     -0.1980
    110  CA         6.7560   19.8520   72.7600 C.3   130  LYS130      0.1596
    111  C          6.6720   18.3750   73.1790 C.2   130  LYS130      0.2287
    112  O          7.0710   17.4940   72.4560 O.2   130  LYS130     -0.2864
    113  CB         8.0820   20.5130   73.2160 C.3   130  LYS130      0.0298
    114  CG         9.2120   20.3540   72.2990 C.3   130  LYS130      0.0038
    115  CD        10.4140   21.2100   72.7230 C.3   130  LYS130      0.0206
    116  CE        10.2960   22.6740   72.3760 C.3   130  LYS130      0.1093
    117  NZ        10.1210   22.9440   70.9050 N.3   130  LYS130     -0.1314
    118  N          4.3760   16.9220   70.5680 N.3   133  PHE133     -0.1241
    119  CA         5.0380   16.7920   69.2820 C.3   133  PHE133      0.1605
    120  C          6.0330   15.6310   69.3100 C.2   133  PHE133      0.2264
    121  O          6.1370   14.8390   68.3820 O.2   133  PHE133     -0.2867
    122  CB         5.7550   18.1210   68.8730 C.3   133  PHE133      0.0534
    123  CG         6.3060   18.0530   67.4900 C.ar  133  PHE133     -0.0203
    124  CD1        5.4710   18.2240   66.4020 C.ar  133  PHE133     -0.0042
    125  CD2        7.6270   17.7050   67.2580 C.ar  133  PHE133     -0.0042
    126  CE1        5.9510   18.0530   65.1250 C.ar  133  PHE133     -0.0003
    127  CE2        8.1120   17.5470   65.9860 C.ar  133  PHE133     -0.0003
    128  CZ         7.2510   17.7250   64.9120 C.ar  133  PHE133     -0.0000
@<TRIPOS>BOND
     1    39    38    2
     2    38    37    1
     3    37    36    1
     4    37    40    1
     5    40    41    1
     6    41    42   ar
     7    41    43   ar
     8    31    30    2
     9    42    44   ar
    10    43    45   ar
    11    30    29    1
    12    44    46   ar
    13    48    49    1
    14    29    28    1
    15    29    32    1
    16    45    46   ar
    17    50    49    1
    18    50    51    2
    19    46    47    1
    20    52    49    1
    21    23    22    2
    22    32    33    1
    23    53    54    1
    24   128   126   ar
    25   128   127   ar
    26    35    33    1
    27    74    72   ar
    28   126   124   ar
    29    22    21    1
    30    33    34    1
    31   127   125   ar
    32    54    55    1
    33    54    57    1
    34    16    15    2
    35    72    73   ar
    36    72    71    1
    37   124   123   ar
    38    55    56    2
    39    21    24    1
    40    21    20    1
    41   125   123   ar
    42    15    20   am
    43    15    14    1
    44    71    68    1
    45    24    25    1
    46   123   122    1
    47    14    13    1
    48    14    17    1
    49    25    26    2
    50    25    27   am
    51    67    68    1
    52   121   120    2
    53    81    79    1
    54    68    69    1
    55    58    59    1
    56   122   119    1
    57    19    17    1
    58   119   120    1
    59   119   118    1
    60    75    69   am
    61    75    76    1
    62    17    18    1
    63    69    70    2
    64    60    59    1
    65    60    61    2
    66    79    76    1
    67    79    80    1
    68    59    62    1
    69    62    63    1
    70     4     3    2
    71    76    77    1
    72    63    64    1
    73    65    64   ar
    74   117   116    1
    75    64    66   ar
    76     3     2    1
    77    77    78    2
    78   107   106    2
    79   114   115    1
    80   114   113    1
    81   116   115    1
    82   112   111    2
    83     9     7   ar
    84     9    11   ar
    85     2     1    1
    86     2     5    1
    87   108   105    1
    88     7     6   ar
    89   110   111    1
    90   110   113    1
    91   110   109    1
    92   106   109   am
    93   106   105    1
    94    12    11    1
    95    11    10   ar
    96    82    83    1
    97   105   104    1
    98     6     5    1
    99     6     8   ar
   100    83    84    1
   101   103   101   ar
   102   103   102   ar
   103   101    99   ar
   104    10     8   ar
   105   102   100   ar
   106    99    98   ar
   107   100    98   ar
   108    96    95    2
   109    98    97    1
   110    84    85    2
   111    97    94    1
   112    94    95    1
   113    94    93    1
   114    91    90    1
   115    90    92    1
   116    90    87    1
   117    86    87    1
   118    87    88    1
   119    88    89    2
