@<TRIPOS>MOLECULE
tmp/2rbeC00.pdb
 132 122 0 0 0
SMALL
GASTEIGER

@<TRIPOS>ATOM
      1  N          7.3180  -15.1250  120.7700 N.3    96  ILE96      -0.1245
      2  CA         7.2530  -13.6640  120.7140 C.3    96  ILE96       0.1561
      3  C          6.9220  -13.1990  122.1240 C.2    96  ILE96       0.2260
      4  O          6.3520  -13.9540  122.9150 O.2    96  ILE96      -0.2867
      5  CB         6.1480  -13.1110  119.7700 C.3    96  ILE96       0.0252
      6  CG1        4.7690  -13.5630  120.2510 C.3    96  ILE96       0.0019
      7  CG2        6.4010  -13.5460  118.3430 C.3    96  ILE96       0.0019
      8  CD1        3.6330  -12.9410  119.4570 C.3    96  ILE96       0.0001
      9  N          2.2050   -9.3720  123.6770 N.3    99  THR99      -0.1218
     10  CA         1.8800   -8.1090  123.0220 C.3    99  THR99       0.1862
     11  C          0.3870   -7.8630  122.8850 C.2    99  THR99       0.2287
     12  O         -0.3650   -8.7530  122.4800 O.2    99  THR99      -0.2866
     13  CB         2.4960   -8.0400  121.6070 C.3    99  THR99       0.1770
     14  OG1        1.9760   -9.1080  120.8060 O.3    99  THR99      -0.2211
     15  CG2        4.0120   -8.1690  121.6730 C.3    99  THR99       0.0375
     16  N         -2.7080   -4.8740  121.5910 N.3   101  LEU101     -0.1245
     17  CA        -2.9660   -3.7650  120.6790 C.3   101  LEU101      0.1561
     18  C         -3.1350   -2.4560  121.4500 C.2   101  LEU101      0.2260
     19  O         -3.9090   -2.3860  122.3990 O.2   101  LEU101     -0.2867
     20  CB        -4.2350   -4.0490  119.8660 C.3   101  LEU101      0.0270
     21  CG        -4.2040   -5.0830  118.7330 C.3   101  LEU101      0.0019
     22  CD1       -3.5500   -4.4710  117.5160 C.3   101  LEU101      0.0001
     23  CD2       -3.4720   -6.3430  119.1710 C.3   101  LEU101      0.0001
     24  N          4.5060  -12.4590  110.3020 N.3   145  SER145     -0.1202
     25  CA         3.0970  -12.0810  110.2200 C.3   145  SER145      0.2020
     26  C          2.8150  -11.1470  109.0510 C.2   145  SER145      0.2619
     27  O          3.7400  -10.6480  108.4120 O.2   145  SER145     -0.2717
     28  CB         2.7030  -11.3780  111.5290 C.3   145  SER145      0.2103
     29  OG         1.4920  -10.6480  111.4080 O.3   145  SER145     -0.2182
     30  N          1.5320  -10.9250  108.7690 N.am  146  LEU146     -0.1965
     31  CA         1.1410   -9.9870  107.7190 C.3   146  LEU146      0.1728
     32  C          1.6980   -8.6300  108.1360 C.2   146  LEU146      0.2616
     33  O          2.0830   -7.8170  107.2920 O.2   146  LEU146     -0.2715
     34  CB        -0.3850   -9.8680  107.6230 C.3   146  LEU146      0.0311
     35  CG        -1.1750  -11.0590  107.0820 C.3   146  LEU146      0.0022
     36  CD1       -2.6640  -10.7180  107.0750 C.3   146  LEU146      0.0001
     37  CD2       -0.7000  -11.3920  105.6740 C.3   146  LEU146      0.0001
     38  N          1.7300   -8.3930  109.4460 N.am  147  ALA147     -0.1977
     39  CA         2.2360   -7.1260  109.9830 C.3   147  ALA147      0.1597
     40  C          3.7530   -7.0400  109.8610 C.2   147  ALA147      0.2287
     41  O          4.3650   -6.0700  110.3010 O.2   147  ALA147     -0.2864
     42  CB         1.8140   -6.9450  111.4370 C.3   147  ALA147      0.0319
     43  N          0.3910   -1.7980  109.9080 N.3   152  TYR152     -0.1241
     44  CA        -0.9150   -1.9580  110.5430 C.3   152  TYR152      0.1605
     45  C         -0.8760   -1.2190  111.8760 C.2   152  TYR152      0.2264
     46  O          0.0630   -1.3770  112.6460 O.2   152  TYR152     -0.2867
     47  CB        -1.2020   -3.4460  110.7540 C.3   152  TYR152      0.0534
     48  CG        -2.6570   -3.7670  110.9850 C.ar  152  TYR152     -0.0201
     49  CD1       -3.2270   -3.6600  112.2550 C.ar  152  TYR152     -0.0009
     50  CD2       -3.4720   -4.1630  109.9260 C.ar  152  TYR152     -0.0009
     51  CE1       -4.5770   -3.9420  112.4650 C.ar  152  TYR152      0.0417
     52  CE2       -4.8220   -4.4450  110.1230 C.ar  152  TYR152      0.0417
     53  CZ        -5.3660   -4.3330  111.3920 C.ar  152  TYR152      0.1957
     54  OH        -6.7000   -4.6090  111.5790 O.3   152  TYR152     -0.2866
     55  N          0.1180   -2.0350  116.4300 N.3   155  VAL155     -0.1245
     56  CA         1.1390   -3.0670  116.6220 C.3   155  VAL155      0.1561
     57  C          2.4730   -2.5810  116.0450 C.2   155  VAL155      0.2260
     58  O          3.2280   -3.3570  115.4540 O.2   155  VAL155     -0.2867
     59  CB         0.7500   -4.3910  115.9150 C.3   155  VAL155      0.0252
     60  CG1       -0.4380   -5.0370  116.6220 C.3   155  VAL155      0.0019
     61  CG2        0.4210   -4.1280  114.4540 C.3   155  VAL155      0.0019
     62  N          5.5630   -4.4320  117.4690 N.3   158  TYR158     -0.1241
     63  CA         5.5020   -5.8000  116.9660 C.3   158  TYR158      0.1605
     64  C          5.8410   -5.8320  115.4700 C.2   158  TYR158      0.2264
     65  O          6.6360   -6.6540  115.0190 O.2   158  TYR158     -0.2867
     66  CB         4.0970   -6.3570  117.1900 C.3   158  TYR158      0.0534
     67  CG         3.8250   -7.6890  116.5220 C.ar  158  TYR158     -0.0201
     68  CD1        4.3320   -8.8770  117.0540 C.ar  158  TYR158     -0.0009
     69  CD2        3.0410   -7.7610  115.3650 C.ar  158  TYR158     -0.0009
     70  CE1        4.0580  -10.1170  116.4500 C.ar  158  TYR158      0.0417
     71  CE2        2.7640   -8.9930  114.7530 C.ar  158  TYR158      0.0417
     72  CZ         3.2750  -10.1610  115.3040 C.ar  158  TYR158      0.1957
     73  OH         2.9860  -11.3740  114.7080 O.3   158  TYR158     -0.2866
     74  N          2.0060  -15.0970  108.2620 N.3   190  LEU190     -0.1231
     75  CA         0.7040  -15.5350  108.7640 C.3   190  LEU190      0.1693
     76  C         -0.3230  -14.4340  108.9960 C.2   190  LEU190      0.2593
     77  O         -0.0040  -13.3860  109.5470 O.2   190  LEU190     -0.2718
     78  CB         0.8960  -16.2780  110.0840 C.3   190  LEU190      0.0284
     79  CG         1.4610  -17.7020  110.1140 C.3   190  LEU190      0.0019
     80  CD1        2.5660  -17.8830  109.0860 C.3   190  LEU190      0.0001
     81  CD2        1.9580  -17.9910  111.5280 C.3   190  LEU190      0.0001
     82  N         -1.5610  -14.6900  108.5810 N.am  191  GLY191     -0.1942
     83  CA        -2.6340  -13.7380  108.8170 C.3   191  GLY191      0.2014
     84  C         -3.1540  -14.0650  110.2110 C.2   191  GLY191      0.2638
     85  O         -2.4960  -14.8010  110.9520 O.2   191  GLY191     -0.2714
     86  N         -4.3260  -13.5570  110.5810 N.am  192  LEU192     -0.1977
     87  CA        -4.8540  -13.8350  111.9120 C.3   192  LEU192      0.1596
     88  C         -5.0800  -15.3310  112.1380 C.2   192  LEU192      0.2287
     89  O         -5.6670  -16.0110  111.3030 O.2   192  LEU192     -0.2864
     90  CB        -6.1620  -13.0700  112.1300 C.3   192  LEU192      0.0297
     91  CG        -6.7450  -13.0750  113.5430 C.3   192  LEU192      0.0022
     92  CD1       -5.7760  -12.3810  114.5060 C.3   192  LEU192      0.0001
     93  CD2       -8.1020  -12.3590  113.5360 C.3   192  LEU192      0.0001
     94  N         -4.4980  -16.6020  122.7900 N.3   197  THR197     -0.1203
     95  CA        -3.8500  -15.3220  123.0150 C.3   197  THR197      0.1994
     96  C         -4.2890  -14.2690  122.0030 C.2   197  THR197      0.2617
     97  O         -4.7530  -13.1920  122.3760 O.2   197  THR197     -0.2717
     98  CB        -2.3110  -15.4730  122.9410 C.3   197  THR197      0.1784
     99  OG1       -1.8710  -16.3580  123.9800 O.3   197  THR197     -0.2211
    100  CG2       -1.6300  -14.1300  123.1200 C.3   197  THR197      0.0376
    101  N         -4.1480  -14.5850  120.7210 N.am  198  ALA198     -0.1979
    102  CA        -4.5110  -13.6430  119.6680 C.3   198  ALA198      0.1597
    103  C         -5.9880  -13.2610  119.6770 C.2   198  ALA198      0.2287
    104  O         -6.3270  -12.0880  119.5550 O.2   198  ALA198     -0.2864
    105  CB        -4.1300  -14.2090  118.3070 C.3   198  ALA198      0.0319
    106  N         -6.6420  -10.7940  122.4780 N.3   201  ALA201     -0.1231
    107  CA        -6.0500   -9.4770  122.2790 C.3   201  ALA201      0.1694
    108  C         -6.7290   -8.6790  121.1670 C.2   201  ALA201      0.2591
    109  O         -6.7550   -7.4480  121.1960 O.2   201  ALA201     -0.2718
    110  CB        -4.5640   -9.6220  121.9790 C.3   201  ALA201      0.0304
    111  N         -7.2880   -9.3920  120.1980 N.am  202  VAL202     -0.1980
    112  CA        -7.9390   -8.7790  119.0510 C.3   202  VAL202      0.1595
    113  C         -9.4450   -8.5330  119.2120 C.2   202  VAL202      0.2287
    114  O        -10.0580   -7.8390  118.3940 O.2   202  VAL202     -0.2864
    115  CB        -7.6770   -9.6590  117.7990 C.3   202  VAL202      0.0276
    116  CG1       -8.6410   -9.3270  116.6870 C.3   202  VAL202      0.0022
    117  CG2       -6.2430   -9.4620  117.3350 C.3   202  VAL202      0.0022
    118  N         -9.9680   -5.8730  115.9130 N.3   206  VAL206     -0.1245
    119  CA        -9.7410   -6.3480  114.5560 C.3   206  VAL206      0.1561
    120  C        -10.8970   -7.2430  114.1320 C.2   206  VAL206      0.2260
    121  O        -11.2870   -8.1490  114.8690 O.2   206  VAL206     -0.2867
    122  CB        -8.4170   -7.1370  114.4660 C.3   206  VAL206      0.0252
    123  CG1       -8.2120   -7.6670  113.0540 C.3   206  VAL206      0.0019
    124  CG2       -7.2570   -6.2410  114.8840 C.3   206  VAL206      0.0019
    125  N        -11.4190   -9.5590  111.2620 N.3   208  MET208     -0.1245
    126  CA       -11.1050  -10.4030  110.1170 C.3   208  MET208      0.1570
    127  C        -11.1870  -11.8550  110.5600 C.2   208  MET208      0.2261
    128  O        -11.0680  -12.1540  111.7440 O.2   208  MET208     -0.2867
    129  CB        -9.7150  -10.0790  109.5510 C.3   208  MET208      0.0387
    130  CG        -8.5840  -10.0200  110.5620 C.3   208  MET208      0.0595
    131  SD        -6.9960   -9.5660  109.7780 S.3   208  MET208     -0.1393
    132  CE        -7.1840   -7.8230  109.5890 C.3   208  MET208      0.0692
@<TRIPOS>BOND
     1    37    35    1
     2    36    35    1
     3    35    34    1
     4    33    32    2
     5    34    31    1
     6    31    32    1
     7    31    30    1
     8    32    38   am
     9    74    75    1
    10    27    26    2
    11    82    83    1
    12    82    76   am
    13    75    76    1
    14    75    78    1
    15    30    26   am
    16    83    84    1
    17    76    77    2
    18    26    25    1
    19    80    79    1
    20    38    39    1
    21   129   126    1
    22   129   130    1
    23   132   131    1
    24   131   130    1
    25    40    39    1
    26    40    41    2
    27    43    44    1
    28    50    52   ar
    29    50    48   ar
    30    39    42    1
    31    78    79    1
    32    79    81    1
    33   126   127    1
    34   126   125    1
    35    52    53   ar
    36    84    86   am
    37    84    85    2
    38    25    24    1
    39    25    28    1
    40    44    47    1
    41    44    45    1
    42   127   128    2
    43    86    87    1
    44    47    48    1
    45    48    49   ar
    46    89    88    2
    47    53    54    1
    48    53    51   ar
    49    29    28    1
    50    45    46    2
    51    87    90    1
    52    87    88    1
    53    90    91    1
    54    49    51   ar
    55   123   122    1
    56    93    91    1
    57    91    92    1
    58   120   119    1
    59   120   121    2
    60    61    59    1
    61   122   119    1
    62   122   124    1
    63   119   118    1
    64    73    72    1
    65    71    72   ar
    66    71    69   ar
    67    65    64    2
    68    72    70   ar
    69    69    67   ar
    70    58    57    2
    71    64    63    1
    72    59    60    1
    73    59    56    1
    74    57    56    1
    75    55    56    1
    76    70    68   ar
    77    67    68   ar
    78    67    66    1
    79   116   115    1
    80    63    66    1
    81    63    62    1
    82   117   115    1
    83    22    21    1
    84   115   112    1
    85   105   102    1
    86     7     5    1
    87   114   113    2
    88    21    23    1
    89    21    20    1
    90   112   113    1
    91   112   111    1
    92     8     6    1
    93   104   103    2
    94   102   103    1
    95   102   101    1
    96     5     6    1
    97     5     2    1
    98    20    17    1
    99   111   108   am
   100    17    18    1
   101    17    16    1
   102     2     1    1
   103     2     3    1
   104   101    96   am
   105    14    13    1
   106   108   109    2
   107   108   107    1
   108    18    19    2
   109    13    15    1
   110    13    10    1
   111   110   107    1
   112    96    97    2
   113    96    95    1
   114     3     4    2
   115   107   106    1
   116    12    11    2
   117    94    95    1
   118    11    10    1
   119    98    95    1
   120    98   100    1
   121    98    99    1
   122    10     9    1
