@<TRIPOS>MOLECULE
tmp/2rbnA00.pdb
 123 114 0 0 0
SMALL
GASTEIGER

@<TRIPOS>ATOM
      1  N         23.9510    7.2190   12.0590 N.3    78  ILE78      -0.1245
      2  CA        23.6540    6.5760   10.7770 C.3    78  ILE78       0.1561
      3  C         22.4760    5.6060   10.9330 C.2    78  ILE78       0.2260
      4  O         21.5380    5.6170   10.1230 O.2    78  ILE78      -0.2867
      5  CB        24.8930    5.8290   10.2110 C.3    78  ILE78       0.0252
      6  CG1       25.9380    6.8330    9.7100 C.3    78  ILE78       0.0019
      7  CG2       24.4920    4.8600    9.0880 C.3    78  ILE78       0.0019
      8  CD1       27.3260    6.2300    9.4850 C.3    78  ILE78       0.0001
      9  N         19.9920    7.0090    5.6200 N.3    84  LEU84      -0.1245
     10  CA        21.3210    6.4010    5.6510 C.3    84  LEU84       0.1561
     11  C         21.3180    4.9320    6.0540 C.2    84  LEU84       0.2260
     12  O         22.0920    4.1360    5.5110 O.2    84  LEU84      -0.2867
     13  CB        22.2670    7.1900    6.5610 C.3    84  LEU84       0.0270
     14  CG        22.5300    8.6510    6.2000 C.3    84  LEU84       0.0019
     15  CD1       23.4670    9.2560    7.2250 C.3    84  LEU84       0.0001
     16  CD2       23.0940    8.7810    4.7940 C.3    84  LEU84       0.0001
     17  N         21.0650    2.0820    3.3490 N.3    87  VAL87      -0.1231
     18  CA        22.2610    2.0440    2.5140 C.3    87  VAL87       0.1692
     19  C         23.4300    1.4460    3.3040 C.2    87  VAL87       0.2592
     20  O         24.1020    0.5250    2.8410 O.2    87  VAL87      -0.2718
     21  CB        22.6100    3.4400    1.9400 C.3    87  VAL87       0.0266
     22  CG1       23.7980    3.3370    0.9990 C.3    87  VAL87       0.0020
     23  CG2       21.4110    4.0310    1.2000 C.3    87  VAL87       0.0020
     24  N         23.6420    1.9480    4.5140 N.am   88  TYR88      -0.1976
     25  CA        24.6800    1.4210    5.3920 C.3    88  TYR88       0.1639
     26  C         24.5330   -0.0940    5.5950 C.2    88  TYR88       0.2290
     27  O         25.5010   -0.8480    5.4410 O.2    88  TYR88      -0.2864
     28  CB        24.6330    2.1620    6.7280 C.3    88  TYR88       0.0560
     29  CG        25.6750    1.7290    7.7270 C.ar   88  TYR88      -0.0198
     30  CD1       26.9580    2.2780    7.7070 C.ar   88  TYR88      -0.0009
     31  CD2       25.3750    0.7890    8.7120 C.ar   88  TYR88      -0.0009
     32  CE1       27.9190    1.8860    8.6290 C.ar   88  TYR88       0.0417
     33  CE2       26.3300    0.3910    9.6380 C.ar   88  TYR88       0.0417
     34  CZ        27.5980    0.9430    9.5890 C.ar   88  TYR88       0.1957
     35  OH        28.5490    0.5510   10.5020 O.3    88  TYR88      -0.2866
     36  N         25.7080   -2.4390    2.8420 N.3    91  LEU91      -0.1245
     37  CA        27.1430   -2.4920    2.5730 C.3    91  LEU91       0.1561
     38  C         27.8690   -3.5960    3.3260 C.2    91  LEU91       0.2260
     39  O         27.4320   -4.0270    4.3980 O.2    91  LEU91      -0.2867
     40  CB        27.7970   -1.1510    2.9240 C.3    91  LEU91       0.0270
     41  CG        27.3200    0.1010    2.1890 C.3    91  LEU91       0.0019
     42  CD1       27.9290    1.3240    2.8450 C.3    91  LEU91       0.0001
     43  CD2       27.6910    0.0490    0.7180 C.3    91  LEU91       0.0001
     44  N         31.6500    4.8500    4.9180 N.3    99  ALA99      -0.1245
     45  CA        30.4390    5.5800    5.2890 C.3    99  ALA99       0.1562
     46  C         30.6120    6.2970    6.6310 C.2    99  ALA99       0.2260
     47  O         30.2940    7.4880    6.7580 O.2    99  ALA99      -0.2867
     48  CB        29.2440    4.6320    5.3370 C.3    99  ALA99       0.0290
     49  N         33.0440    9.3490    6.2300 N.3   102  GLN102     -0.1231
     50  CA        32.4080   10.5200    5.6510 C.3   102  GLN102      0.1698
     51  C         31.4800   11.2420    6.6260 C.2   102  GLN102      0.2592
     52  O         31.4980   12.4700    6.7030 O.2   102  GLN102     -0.2718
     53  CB        31.6870   10.1760    4.3500 C.3   102  GLN102      0.0381
     54  CG        31.2930   11.4200    3.5590 C.3   102  GLN102      0.0905
     55  CD        30.4220   11.1300    2.3620 C.2   102  GLN102      0.2608
     56  OE1       29.7540   10.1080    2.2960 O.2   102  GLN102     -0.2717
     57  NE2       30.4150   12.0420    1.4060 N.am  102  GLN102     -0.0878
     58  N         30.6870   10.4880    7.3810 N.am  103  VAL103     -0.1980
     59  CA        29.7820   11.1060    8.3530 C.3   103  VAL103      0.1595
     60  C         30.5640   11.7740    9.4880 C.2   103  VAL103      0.2287
     61  O         30.1990   12.8610    9.9450 O.2   103  VAL103     -0.2864
     62  CB        28.7530   10.0940    8.8930 C.3   103  VAL103      0.0276
     63  CG1       27.9960   10.6590   10.0890 C.3   103  VAL103      0.0022
     64  CG2       27.7840    9.7010    7.7920 C.3   103  VAL103      0.0022
     65  N         25.6030   14.3280    4.4410 N.3   111  VAL111     -0.1245
     66  CA        25.6730   13.0290    3.7720 C.3   111  VAL111      0.1561
     67  C         24.2810   12.5050    3.3860 C.2   111  VAL111      0.2260
     68  O         24.1000   11.9550    2.3000 O.2   111  VAL111     -0.2867
     69  CB        26.4210   11.9720    4.6210 C.3   111  VAL111      0.0252
     70  CG1       26.5340   10.6610    3.8480 C.3   111  VAL111      0.0019
     71  CG2       27.8080   12.4700    5.0070 C.3   111  VAL111      0.0019
     72  N         23.1280   13.2470   -0.0450 N.3   114  PHE114     -0.1241
     73  CA        23.8680   12.6830   -1.1840 C.3   114  PHE114      0.1605
     74  C         22.9460   11.6590   -1.8660 C.2   114  PHE114      0.2264
     75  O         23.3110   10.4990   -2.0640 O.2   114  PHE114     -0.2867
     76  CB        25.1650   12.0130   -0.6830 C.3   114  PHE114      0.0534
     77  CG        26.3920   12.9150   -0.6460 C.ar  114  PHE114     -0.0203
     78  CD1       27.5760   12.5100   -1.2650 C.ar  114  PHE114     -0.0042
     79  CD2       26.3800   14.1400    0.0220 C.ar  114  PHE114     -0.0042
     80  CE1       28.7220   13.3050   -1.2350 C.ar  114  PHE114     -0.0003
     81  CE2       27.5220   14.9490    0.0490 C.ar  114  PHE114     -0.0003
     82  CZ        28.6920   14.5290   -0.5800 C.ar  114  PHE114     -0.0000
     83  N         24.2430    9.4760   -4.8890 N.3   117  SER117     -0.1202
     84  CA        25.3430    8.6060   -4.4680 C.3   117  SER117      0.2020
     85  C         24.8210    7.4570   -3.6130 C.2   117  SER117      0.2618
     86  O         25.2220    6.3050   -3.7870 O.2   117  SER117     -0.2717
     87  CB        26.3950    9.3920   -3.6840 C.3   117  SER117      0.2103
     88  OG        27.3190   10.0290   -4.5450 O.3   117  SER117     -0.2182
     89  N         23.9200    7.7750   -2.6910 N.am  118  LEU118     -0.1979
     90  CA        23.3280    6.7820   -1.8010 C.3   118  LEU118      0.1596
     91  C         22.6130    5.6910   -2.5890 C.2   118  LEU118      0.2287
     92  O         22.7930    4.4990   -2.3090 O.2   118  LEU118     -0.2864
     93  CB        22.3760    7.4480   -0.8030 C.3   118  LEU118      0.0297
     94  CG        23.0220    8.2590    0.3240 C.3   118  LEU118      0.0022
     95  CD1       21.9820    9.1600    0.9760 C.3   118  LEU118      0.0001
     96  CD2       23.6830    7.3720    1.3700 C.3   118  LEU118      0.0001
     97  N         25.1320    3.5070   -4.3960 N.3   121  LEU121     -0.1245
     98  CA        25.7870    2.6270   -3.4350 C.3   121  LEU121      0.1561
     99  C         24.8860    1.4630   -3.0520 C.2   121  LEU121      0.2260
    100  O         25.3320    0.3170   -3.0250 O.2   121  LEU121     -0.2867
    101  CB        26.2380    3.4030   -2.1920 C.3   121  LEU121      0.0270
    102  CG        27.4320    4.3370   -2.4020 C.3   121  LEU121      0.0019
    103  CD1       27.6150    5.2300   -1.1910 C.3   121  LEU121      0.0001
    104  CD2       28.7150    3.5670   -2.6990 C.3   121  LEU121      0.0001
    105  N         30.2260   10.6770   -6.1750 N.3   133  LEU133     -0.1245
    106  CA        30.7400   11.1450   -4.8910 C.3   133  LEU133      0.1561
    107  C         31.7470   12.2850   -5.0530 C.2   133  LEU133      0.2260
    108  O         31.8240   13.1680   -4.2020 O.2   133  LEU133     -0.2867
    109  CB        31.3870    9.9920   -4.1190 C.3   133  LEU133      0.0270
    110  CG        30.4160    9.0230   -3.4340 C.3   133  LEU133      0.0019
    111  CD1       31.1140    7.7170   -3.0810 C.3   133  LEU133      0.0001
    112  CD2       29.7890    9.6460   -2.1920 C.3   133  LEU133      0.0001
    113  N         35.0130    3.0820   -1.0450 N.3   153  PHE153     -0.1241
    114  CA        33.6650    2.8150   -1.5630 C.3   153  PHE153      0.1605
    115  C         33.6870    2.0800   -2.8990 C.2   153  PHE153      0.2264
    116  O         32.8270    1.2400   -3.1570 O.2   153  PHE153     -0.2867
    117  CB        32.8690    4.1080   -1.7410 C.3   153  PHE153      0.0534
    118  CG        32.1820    4.5920   -0.4990 C.ar  153  PHE153     -0.0203
    119  CD1       32.4130    5.8790   -0.0320 C.ar  153  PHE153     -0.0042
    120  CD2       31.2640    3.7820    0.1720 C.ar  153  PHE153     -0.0042
    121  CE1       31.7610    6.3430    1.1010 C.ar  153  PHE153     -0.0003
    122  CE2       30.6130    4.2350    1.3030 C.ar  153  PHE153     -0.0003
    123  CZ        30.8550    5.5170    1.7650 C.ar  153  PHE153     -0.0000
@<TRIPOS>BOND
     1   105   106    1
     2   107   106    1
     3   107   108    2
     4   106   109    1
     5    83    84    1
     6    88    87    1
     7    84    87    1
     8    84    85    1
     9    97    98    1
    10   109   110    1
    11    86    85    2
    12    85    89   am
    13    98    99    1
    14    98   101    1
    15   110   111    1
    16   110   112    1
    17   116   115    2
    18    99   100    2
    19   115   114    1
    20   104   102    1
    21    89    90    1
    22    91    92    2
    23    91    90    1
    24   102   101    1
    25   102   103    1
    26    75    74    2
    27    74    73    1
    28    90    93    1
    29   117   114    1
    30   117   118    1
    31   114   113    1
    32    78    80   ar
    33    78    77   ar
    34    80    82   ar
    35    73    76    1
    36    73    72    1
    37    93    94    1
    38    76    77    1
    39    77    79   ar
    40    82    81   ar
    41   118   119   ar
    42   118   120   ar
    43   119   121   ar
    44    79    81   ar
    45   120   122   ar
    46    94    95    1
    47    94    96    1
    48    43    41    1
    49    22    21    1
    50   121   123   ar
    51    23    21    1
    52   122   123   ar
    53    57    55   am
    54    21    18    1
    55    41    42    1
    56    41    40    1
    57    56    55    2
    58    68    67    2
    59    55    54    1
    60    18    19    1
    61    18    17    1
    62    37    36    1
    63    37    40    1
    64    37    38    1
    65    20    19    2
    66    19    24   am
    67    38    39    2
    68    67    66    1
    69    54    53    1
    70    66    65    1
    71    66    69    1
    72    70    69    1
    73    53    50    1
    74    24    25    1
    75    69    71    1
    76    16    14    1
    77    44    45    1
    78    45    48    1
    79    45    46    1
    80    25    26    1
    81    25    28    1
    82    27    26    2
    83    12    11    2
    84     9    10    1
    85    10    11    1
    86    10    13    1
    87    50    49    1
    88    50    51    1
    89    14    13    1
    90    14    15    1
    91    51    52    2
    92    51    58   am
    93    46    47    2
    94    28    29    1
    95    58    59    1
    96    30    29   ar
    97    30    32   ar
    98    29    31   ar
    99    64    62    1
   100    59    62    1
   101    59    60    1
   102    32    34   ar
   103    31    33   ar
   104    62    63    1
   105     7     5    1
   106     8     6    1
   107    60    61    2
   108    34    33   ar
   109    34    35    1
   110     6     5    1
   111     4     3    2
   112     5     2    1
   113     2     3    1
   114     2     1    1
