@<TRIPOS>MOLECULE
tmp/2rboA00.pdb
 117 108 0 0 0
SMALL
GASTEIGER

@<TRIPOS>ATOM
      1  N         23.9080    7.2170   12.1680 N.3    78  ILE78      -0.1245
      2  CA        23.5970    6.6290   10.8630 C.3    78  ILE78       0.1561
      3  C         22.4010    5.6850   10.9830 C.2    78  ILE78       0.2260
      4  O         21.4710    5.7390   10.1720 O.2    78  ILE78      -0.2867
      5  CB        24.8200    5.8780   10.2600 C.3    78  ILE78       0.0252
      6  CG1       25.8690    6.8760    9.7560 C.3    78  ILE78       0.0019
      7  CG2       24.3890    4.9400    9.1250 C.3    78  ILE78       0.0019
      8  CD1       27.2280    6.2490    9.4300 C.3    78  ILE78       0.0001
      9  N         19.8840    7.0830    5.6910 N.3    84  LEU84      -0.1245
     10  CA        21.2060    6.4580    5.7050 C.3    84  LEU84       0.1561
     11  C         21.1880    4.9820    6.0800 C.2    84  LEU84       0.2260
     12  O         21.9380    4.1910    5.5040 O.2    84  LEU84      -0.2867
     13  CB        22.1710    7.2290    6.6140 C.3    84  LEU84       0.0270
     14  CG        22.4230    8.6980    6.2500 C.3    84  LEU84       0.0019
     15  CD1       23.3490    9.3480    7.2740 C.3    84  LEU84       0.0001
     16  CD2       22.9800    8.8460    4.8340 C.3    84  LEU84       0.0001
     17  N         21.0480    2.2060    3.2850 N.3    87  VAL87      -0.1231
     18  CA        22.2700    2.1510    2.4910 C.3    87  VAL87       0.1692
     19  C         23.3970    1.5270    3.3180 C.2    87  VAL87       0.2592
     20  O         24.0680    0.5990    2.8700 O.2    87  VAL87      -0.2718
     21  CB        22.6780    3.5440    1.9540 C.3    87  VAL87       0.0266
     22  CG1       23.8800    3.4200    1.0250 C.3    87  VAL87       0.0020
     23  CG2       21.5000    4.2110    1.2440 C.3    87  VAL87       0.0020
     24  N         23.5660    2.0110    4.5420 N.am   88  TYR88      -0.1976
     25  CA        24.5970    1.5020    5.4320 C.3    88  TYR88       0.1639
     26  C         24.4450   -0.0030    5.6300 C.2    88  TYR88       0.2290
     27  O         25.4120   -0.7610    5.5010 O.2    88  TYR88      -0.2864
     28  CB        24.5110    2.2300    6.7710 C.3    88  TYR88       0.0560
     29  CG        25.5930    1.8590    7.7540 C.ar   88  TYR88      -0.0198
     30  CD1       26.8510    2.4620    7.6920 C.ar   88  TYR88      -0.0009
     31  CD2       25.3620    0.9160    8.7570 C.ar   88  TYR88      -0.0009
     32  CE1       27.8510    2.1340    8.5950 C.ar   88  TYR88       0.0417
     33  CE2       26.3580    0.5830    9.6670 C.ar   88  TYR88       0.0417
     34  CZ        27.6020    1.1920    9.5710 C.ar   88  TYR88       0.1957
     35  OH        28.5990    0.8770   10.4660 O.3    88  TYR88      -0.2866
     36  N         25.6640   -2.3170    2.8640 N.3    91  LEU91      -0.1245
     37  CA        27.1020   -2.3710    2.6200 C.3    91  LEU91       0.1561
     38  C         27.8040   -3.4870    3.3730 C.2    91  LEU91       0.2260
     39  O         27.3370   -3.9340    4.4250 O.2    91  LEU91      -0.2867
     40  CB        27.7470   -1.0400    3.0100 C.3    91  LEU91       0.0270
     41  CG        27.3150    0.2180    2.2560 C.3    91  LEU91       0.0019
     42  CD1       27.9260    1.4430    2.9190 C.3    91  LEU91       0.0001
     43  CD2       27.7030    0.1440    0.7840 C.3    91  LEU91       0.0001
     44  N         31.6230    4.9360    4.9340 N.3    99  ALA99      -0.1245
     45  CA        30.4250    5.6690    5.3440 C.3    99  ALA99       0.1562
     46  C         30.6420    6.3970    6.6710 C.2    99  ALA99       0.2260
     47  O         30.3220    7.5870    6.7960 O.2    99  ALA99      -0.2867
     48  CB        29.2360    4.7200    5.4470 C.3    99  ALA99       0.0290
     49  N         33.0440    9.4010    6.2060 N.3   102  GLN102     -0.1231
     50  CA        32.3870   10.5510    5.5990 C.3   102  GLN102      0.1698
     51  C         31.4890   11.2960    6.5900 C.2   102  GLN102      0.2592
     52  O         31.5300   12.5270    6.6720 O.2   102  GLN102     -0.2718
     53  CB        31.6160   10.1390    4.3460 C.3   102  GLN102      0.0381
     54  CG        31.2180   11.3140    3.4720 C.3   102  GLN102      0.0905
     55  CD        30.4750   10.8980    2.2180 C.2   102  GLN102      0.2608
     56  OE1       30.3910    9.7130    1.8900 O.2   102  GLN102     -0.2717
     57  NE2       29.9350   11.8810    1.4990 N.am  102  GLN102     -0.0878
     58  N         30.7010   10.5530    7.3600 N.am  103  VAL103     -0.1980
     59  CA        29.8100   11.1700    8.3430 C.3   103  VAL103      0.1595
     60  C         30.6100   11.8390    9.4630 C.2   103  VAL103      0.2287
     61  O         30.2590   12.9270    9.9180 O.2   103  VAL103     -0.2864
     62  CB        28.7980   10.1470    8.9020 C.3   103  VAL103      0.0276
     63  CG1       28.0170   10.7340   10.0710 C.3   103  VAL103      0.0022
     64  CG2       27.8480    9.6940    7.8010 C.3   103  VAL103      0.0022
     65  N         26.0080   15.0710    4.6010 N.3   111  VAL111     -0.1245
     66  CA        25.6850   14.0030    3.6490 C.3   111  VAL111      0.1561
     67  C         24.2910   14.1580    3.0100 C.2   111  VAL111      0.2260
     68  O         23.9130   13.3490    2.1650 O.2   111  VAL111     -0.2867
     69  CB        25.8910   12.5600    4.2460 C.3   111  VAL111      0.0252
     70  CG1       27.2610   12.4090    4.9030 C.3   111  VAL111      0.0019
     71  CG2       24.8060   12.1990    5.2320 C.3   111  VAL111      0.0019
     72  N         23.8860   14.0750   -0.7870 N.3   114  PHE114     -0.1241
     73  CA        24.4680   12.8840   -1.4130 C.3   114  PHE114      0.1605
     74  C         23.4440   11.8170   -1.8100 C.2   114  PHE114      0.2264
     75  O         23.8100   10.6760   -2.0730 O.2   114  PHE114     -0.2867
     76  CB        25.5880   12.3060   -0.5350 C.3   114  PHE114      0.0534
     77  CG        26.8650   13.1100   -0.5800 C.ar  114  PHE114     -0.0203
     78  CD1       26.9800   14.3020    0.1340 C.ar  114  PHE114     -0.0042
     79  CD2       27.9480   12.6840   -1.3430 C.ar  114  PHE114     -0.0042
     80  CE1       28.1580   15.0520    0.0840 C.ar  114  PHE114     -0.0003
     81  CE2       29.1250   13.4290   -1.3920 C.ar  114  PHE114     -0.0003
     82  CZ        29.2290   14.6100   -0.6740 C.ar  114  PHE114     -0.0000
     83  N         24.2150    7.9340   -2.6760 N.3   118  LEU118     -0.1245
     84  CA        23.6760    6.9250   -1.7670 C.3   118  LEU118      0.1561
     85  C         22.8990    5.8490   -2.5060 C.2   118  LEU118      0.2260
     86  O         23.0480    4.6580   -2.2120 O.2   118  LEU118     -0.2867
     87  CB        22.7840    7.5800   -0.7070 C.3   118  LEU118      0.0270
     88  CG        23.5070    8.4620    0.3080 C.3   118  LEU118      0.0019
     89  CD1       22.5110    9.3240    1.0680 C.3   118  LEU118      0.0001
     90  CD2       24.3410    7.6320    1.2680 C.3   118  LEU118      0.0001
     91  N         25.3480    3.6510   -4.3460 N.3   121  LEU121     -0.1245
     92  CA        25.9760    2.7550   -3.3760 C.3   121  LEU121      0.1561
     93  C         25.0590    1.5990   -3.0000 C.2   121  LEU121      0.2260
     94  O         25.4930    0.4460   -2.9790 O.2   121  LEU121     -0.2867
     95  CB        26.4240    3.5130   -2.1200 C.3   121  LEU121      0.0270
     96  CG        27.5970    4.4820   -2.2980 C.3   121  LEU121      0.0019
     97  CD1       27.7790    5.3330   -1.0620 C.3   121  LEU121      0.0001
     98  CD2       28.8780    3.7330   -2.6270 C.3   121  LEU121      0.0001
     99  N         30.3120   10.7060   -6.2520 N.3   133  LEU133     -0.1245
    100  CA        30.8390   11.1860   -4.9720 C.3   133  LEU133      0.1561
    101  C         31.8370   12.3310   -5.1320 C.2   133  LEU133      0.2260
    102  O         31.9060   13.2170   -4.2830 O.2   133  LEU133     -0.2867
    103  CB        31.4980   10.0370   -4.2070 C.3   133  LEU133      0.0270
    104  CG        30.5510    9.0680   -3.4940 C.3   133  LEU133      0.0019
    105  CD1       31.2550    7.7530   -3.1980 C.3   133  LEU133      0.0001
    106  CD2       29.9600    9.6730   -2.2290 C.3   133  LEU133      0.0001
    107  N         34.9910    3.1500   -0.9760 N.3   153  PHE153     -0.1241
    108  CA        33.6420    2.8980   -1.4930 C.3   153  PHE153      0.1605
    109  C         33.6560    2.1470   -2.8230 C.2   153  PHE153      0.2264
    110  O         32.7780    1.3230   -3.0740 O.2   153  PHE153     -0.2867
    111  CB        32.8770    4.2050   -1.7200 C.3   153  PHE153      0.0534
    112  CG        32.2320    4.7900   -0.4890 C.ar  153  PHE153     -0.0203
    113  CD1       32.4790    6.1170   -0.1500 C.ar  153  PHE153     -0.0042
    114  CD2       31.3340    4.0530    0.2890 C.ar  153  PHE153     -0.0042
    115  CE1       31.8690    6.6980    0.9520 C.ar  153  PHE153     -0.0003
    116  CE2       30.7230    4.6310    1.4020 C.ar  153  PHE153     -0.0003
    117  CZ        30.9830    5.9510    1.7250 C.ar  153  PHE153     -0.0000
@<TRIPOS>BOND
     1    99   100    1
     2   101   100    1
     3   101   102    2
     4   100   103    1
     5    91    92    1
     6   103   104    1
     7   104   105    1
     8   104   106    1
     9    92    93    1
    10    92    95    1
    11   110   109    2
    12    93    94    2
    13   109   108    1
    14    83    84    1
    15    98    96    1
    16    85    86    2
    17    85    84    1
    18    96    95    1
    19    96    97    1
    20    75    74    2
    21    74    73    1
    22    84    87    1
    23   111   108    1
    24   111   112    1
    25   108   107    1
    26    73    72    1
    27    73    76    1
    28    81    79   ar
    29    81    82   ar
    30    79    77   ar
    31    87    88    1
    32    82    80   ar
    33    77    76    1
    34    77    78   ar
    35   112   113   ar
    36   112   114   ar
    37   113   115   ar
    38    80    78   ar
    39   114   116   ar
    40    88    89    1
    41    88    90    1
    42    43    41    1
    43   115   117   ar
    44    22    21    1
    45    23    21    1
    46   116   117   ar
    47    57    55   am
    48    56    55    2
    49    21    18    1
    50    68    67    2
    51    55    54    1
    52    41    42    1
    53    41    40    1
    54    18    17    1
    55    18    19    1
    56    37    36    1
    57    37    40    1
    58    37    38    1
    59    20    19    2
    60    67    66    1
    61    19    24   am
    62    38    39    2
    63    54    53    1
    64    66    69    1
    65    66    65    1
    66    69    70    1
    67    69    71    1
    68    53    50    1
    69    24    25    1
    70    16    14    1
    71    44    45    1
    72    45    48    1
    73    45    46    1
    74    25    26    1
    75    25    28    1
    76    27    26    2
    77    12    11    2
    78    50    49    1
    79    50    51    1
    80     9    10    1
    81    10    11    1
    82    10    13    1
    83    14    13    1
    84    14    15    1
    85    51    52    2
    86    51    58   am
    87    46    47    2
    88    28    29    1
    89    58    59    1
    90    30    29   ar
    91    30    32   ar
    92    29    31   ar
    93    64    62    1
    94    59    62    1
    95    59    60    1
    96    32    34   ar
    97    31    33   ar
    98    62    63    1
    99     7     5    1
   100     8     6    1
   101    60    61    2
   102    34    33   ar
   103    34    35    1
   104     6     5    1
   105     4     3    2
   106     5     2    1
   107     2     3    1
   108     2     1    1
