@<TRIPOS>MOLECULE
tmp/2rbpA00.pdb
 123 114 0 0 0
SMALL
GASTEIGER

@<TRIPOS>ATOM
      1  N         23.9520    6.9890   12.0330 N.3    78  ILE78      -0.1245
      2  CA        23.6300    6.2320   10.8210 C.3    78  ILE78       0.1561
      3  C         22.4410    5.2950   11.0730 C.2    78  ILE78       0.2260
      4  O         21.4730    5.3030   10.3150 O.2    78  ILE78      -0.2867
      5  CB        24.8590    5.4390   10.3160 C.3    78  ILE78       0.0252
      6  CG1       25.8920    6.3990    9.7210 C.3    78  ILE78       0.0019
      7  CG2       24.4550    4.3750    9.2830 C.3    78  ILE78       0.0019
      8  CD1       27.2640    5.7660    9.5210 C.3    78  ILE78       0.0001
      9  N         19.9510    6.7570    5.7930 N.3    84  LEU84      -0.1245
     10  CA        21.2850    6.1660    5.8450 C.3    84  LEU84       0.1561
     11  C         21.2950    4.6950    6.2180 C.2    84  LEU84       0.2260
     12  O         22.0650    3.9260    5.6450 O.2    84  LEU84      -0.2867
     13  CB        22.1830    6.9450    6.8130 C.3    84  LEU84       0.0270
     14  CG        22.3750    8.4300    6.4950 C.3    84  LEU84       0.0019
     15  CD1       23.2820    9.0590    7.5460 C.3    84  LEU84       0.0001
     16  CD2       22.9370    8.6440    5.0840 C.3    84  LEU84       0.0001
     17  N         21.1250    1.9000    3.4410 N.3    87  VAL87      -0.1231
     18  CA        22.3160    1.8940    2.6070 C.3    87  VAL87       0.1692
     19  C         23.4860    1.2860    3.3900 C.2    87  VAL87       0.2592
     20  O         24.1660    0.3910    2.9050 O.2    87  VAL87      -0.2718
     21  CB        22.6610    3.3100    2.0810 C.3    87  VAL87       0.0266
     22  CG1       23.8740    3.2710    1.1520 C.3    87  VAL87       0.0020
     23  CG2       21.4580    3.9110    1.3490 C.3    87  VAL87       0.0020
     24  N         23.7020    1.7610    4.6150 N.am   88  TYR88      -0.1976
     25  CA        24.7210    1.1910    5.4850 C.3    88  TYR88       0.1639
     26  C         24.5740   -0.3250    5.6190 C.2    88  TYR88       0.2290
     27  O         25.5430   -1.0680    5.4430 O.2    88  TYR88      -0.2864
     28  CB        24.6740    1.8720    6.8620 C.3    88  TYR88       0.0560
     29  CG        25.7560    1.4060    7.8040 C.ar   88  TYR88      -0.0198
     30  CD1       27.0350    1.9830    7.7600 C.ar   88  TYR88      -0.0009
     31  CD2       25.5250    0.3830    8.7260 C.ar   88  TYR88      -0.0009
     32  CE1       28.0460    1.5660    8.6190 C.ar   88  TYR88       0.0417
     33  CE2       26.5280   -0.0420    9.5830 C.ar   88  TYR88       0.0417
     34  CZ        27.7870    0.5540    9.5280 C.ar   88  TYR88       0.1957
     35  OH        28.7850    0.1220   10.3720 O.3    88  TYR88      -0.2866
     36  N         25.7440   -2.5490    2.7510 N.3    91  LEU91      -0.1245
     37  CA        27.1770   -2.5860    2.4680 C.3    91  LEU91       0.1561
     38  C         27.9060   -3.7120    3.1910 C.2    91  LEU91       0.2260
     39  O         27.4660   -4.1840    4.2480 O.2    91  LEU91      -0.2867
     40  CB        27.8270   -1.2470    2.8550 C.3    91  LEU91       0.0270
     41  CG        27.3730   -0.0080    2.0700 C.3    91  LEU91       0.0019
     42  CD1       27.9430    1.2480    2.7180 C.3    91  LEU91       0.0001
     43  CD2       27.7850   -0.0990    0.6050 C.3    91  LEU91       0.0001
     44  N         31.6210    4.6330    4.8690 N.3    99  ALA99      -0.1245
     45  CA        30.4070    5.3590    5.2290 C.3    99  ALA99       0.1562
     46  C         30.5640    6.0720    6.5690 C.2    99  ALA99       0.2260
     47  O         30.1950    7.2480    6.7040 O.2    99  ALA99      -0.2867
     48  CB        29.2130    4.4160    5.2590 C.3    99  ALA99       0.0290
     49  N         32.8880    9.1530    6.1820 N.3   102  GLN102     -0.1231
     50  CA        32.2160   10.3220    5.6150 C.3   102  GLN102      0.1698
     51  C         31.2720   10.9990    6.6190 C.2   102  GLN102      0.2592
     52  O         31.2500   12.2270    6.7180 O.2   102  GLN102     -0.2718
     53  CB        31.4890    9.9900    4.3040 C.3   102  GLN102      0.0381
     54  CG        31.1520   11.2350    3.5070 C.3   102  GLN102      0.0905
     55  CD        30.4160   10.9370    2.2290 C.2   102  GLN102      0.2608
     56  OE1       29.6280   10.0080    2.1640 O.2   102  GLN102     -0.2717
     57  NE2       30.6730   11.7320    1.1990 N.am  102  GLN102     -0.0878
     58  N         30.5180   10.2060    7.3800 N.am  103  VAL103     -0.1980
     59  CA        29.6150   10.7720    8.3920 C.3   103  VAL103      0.1595
     60  C         30.4030   11.4580    9.5240 C.2   103  VAL103      0.2287
     61  O         30.0220   12.5240   10.0100 O.2   103  VAL103     -0.2864
     62  CB        28.6610    9.6980    8.9410 C.3   103  VAL103      0.0276
     63  CG1       27.8820   10.2030   10.1750 C.3   103  VAL103      0.0022
     64  CG2       27.7120    9.2400    7.8360 C.3   103  VAL103      0.0022
     65  N         25.5880   13.8660    4.9370 N.3   111  VAL111     -0.1245
     66  CA        25.6580   12.6170    4.1740 C.3   111  VAL111      0.1561
     67  C         24.2690   12.1530    3.7160 C.2   111  VAL111      0.2260
     68  O         24.1230   11.6550    2.5950 O.2   111  VAL111     -0.2867
     69  CB        26.4050   11.5150    4.9560 C.3   111  VAL111      0.0252
     70  CG1       26.4030   10.2060    4.1840 C.3   111  VAL111      0.0019
     71  CG2       27.8410   11.9560    5.2260 C.3   111  VAL111      0.0019
     72  N         23.1940   13.2020    0.2490 N.3   114  PHE114     -0.1241
     73  CA        23.9050   12.6640   -0.9240 C.3   114  PHE114      0.1605
     74  C         23.0120   11.6310   -1.6290 C.2   114  PHE114      0.2264
     75  O         23.4150   10.4830   -1.8110 O.2   114  PHE114     -0.2867
     76  CB        25.2270   11.9860   -0.4930 C.3   114  PHE114      0.0534
     77  CG        26.4600   12.8840   -0.5410 C.ar  114  PHE114     -0.0203
     78  CD1       26.5000   14.0990    0.1390 C.ar  114  PHE114     -0.0042
     79  CD2       27.5990   12.4760   -1.2350 C.ar  114  PHE114     -0.0042
     80  CE1       27.6410   14.9080    0.0910 C.ar  114  PHE114     -0.0003
     81  CE2       28.7540   13.2780   -1.2790 C.ar  114  PHE114     -0.0003
     82  CZ        28.7720   14.4930   -0.6120 C.ar  114  PHE114     -0.0000
     83  N         24.3010    9.3950   -4.7010 N.3   117  SER117     -0.1202
     84  CA        25.3880    8.5150   -4.2760 C.3   117  SER117      0.2020
     85  C         24.8580    7.3780   -3.4060 C.2   117  SER117      0.2618
     86  O         25.2780    6.2240   -3.5460 O.2   117  SER117     -0.2717
     87  CB        26.4390    9.2980   -3.4870 C.3   117  SER117      0.2103
     88  OG        27.0520   10.2960   -4.2810 O.3   117  SER117     -0.2182
     89  N         23.9490    7.7170   -2.4920 N.am  118  LEU118     -0.1979
     90  CA        23.3260    6.7210   -1.6180 C.3   118  LEU118      0.1596
     91  C         22.6560    5.6270   -2.4500 C.2   118  LEU118      0.2287
     92  O         22.8420    4.4280   -2.1870 O.2   118  LEU118     -0.2864
     93  CB        22.3240    7.3860   -0.6660 C.3   118  LEU118      0.0297
     94  CG        22.8970    8.2160    0.4920 C.3   118  LEU118      0.0022
     95  CD1       21.8280    9.1290    1.0790 C.3   118  LEU118      0.0001
     96  CD2       23.4760    7.3440    1.5820 C.3   118  LEU118      0.0001
     97  N         25.2150    3.4550   -4.3490 N.3   121  LEU121     -0.1245
     98  CA        25.8970    2.5640   -3.4230 C.3   121  LEU121      0.1561
     99  C         24.9950    1.4040   -3.0270 C.2   121  LEU121      0.2260
    100  O         25.4460    0.2560   -3.0250 O.2   121  LEU121     -0.2867
    101  CB        26.3990    3.3230   -2.1810 C.3   121  LEU121      0.0270
    102  CG        27.5800    4.2580   -2.4760 C.3   121  LEU121      0.0019
    103  CD1       27.7810    5.2340   -1.3280 C.3   121  LEU121      0.0001
    104  CD2       28.8730    3.4900   -2.7850 C.3   121  LEU121      0.0001
    105  N         30.3490   10.5970   -6.1250 N.3   133  LEU133     -0.1245
    106  CA        30.8910   11.0430   -4.8400 C.3   133  LEU133      0.1561
    107  C         31.8770   12.1860   -5.0160 C.2   133  LEU133      0.2260
    108  O         31.9610   13.0630   -4.1590 O.2   133  LEU133     -0.2867
    109  CB        31.5560    9.8810   -4.0880 C.3   133  LEU133      0.0270
    110  CG        30.5970    8.9090   -3.3900 C.3   133  LEU133      0.0019
    111  CD1       31.2770    7.5770   -3.1610 C.3   133  LEU133      0.0001
    112  CD2       30.1140    9.5020   -2.0740 C.3   133  LEU133      0.0001
    113  N         35.0460    3.0270   -1.0440 N.3   153  PHE153     -0.1241
    114  CA        33.7020    2.7760   -1.5750 C.3   153  PHE153      0.1605
    115  C         33.7260    2.0380   -2.9120 C.2   153  PHE153      0.2264
    116  O         32.8440    1.2110   -3.1780 O.2   153  PHE153     -0.2867
    117  CB        32.9360    4.0840   -1.7860 C.3   153  PHE153      0.0534
    118  CG        32.2510    4.6290   -0.5560 C.ar  153  PHE153     -0.0203
    119  CD1       32.4980    5.9360   -0.1430 C.ar  153  PHE153     -0.0042
    120  CD2       31.3290    3.8610    0.1610 C.ar  153  PHE153     -0.0042
    121  CE1       31.8510    6.4800    0.9730 C.ar  153  PHE153     -0.0003
    122  CE2       30.6740    4.3890    1.2780 C.ar  153  PHE153     -0.0003
    123  CZ        30.9360    5.7030    1.6880 C.ar  153  PHE153     -0.0000
@<TRIPOS>BOND
     1   105   106    1
     2   107   106    1
     3   107   108    2
     4   106   109    1
     5    83    84    1
     6    97    98    1
     7    88    87    1
     8    84    87    1
     9    84    85    1
    10   109   110    1
    11    86    85    2
    12    98    99    1
    13    98   101    1
    14    85    89   am
    15   110   111    1
    16   110   112    1
    17   116   115    2
    18    99   100    2
    19   115   114    1
    20   104   102    1
    21    89    90    1
    22   102   101    1
    23   102   103    1
    24    91    92    2
    25    91    90    1
    26    75    74    2
    27   117   114    1
    28   117   118    1
    29    74    73    1
    30    90    93    1
    31   114   113    1
    32    81    79   ar
    33    81    82   ar
    34    79    77   ar
    35    73    76    1
    36    73    72    1
    37    93    94    1
    38    82    80   ar
    39   118   119   ar
    40   118   120   ar
    41    77    76    1
    42    77    78   ar
    43   119   121   ar
    44    80    78   ar
    45   120   122   ar
    46    94    95    1
    47    94    96    1
    48    43    41    1
    49   121   123   ar
    50    22    21    1
    51    57    55   am
    52   122   123   ar
    53    23    21    1
    54    41    42    1
    55    41    40    1
    56    21    18    1
    57    56    55    2
    58    55    54    1
    59    37    36    1
    60    37    40    1
    61    37    38    1
    62    68    67    2
    63    18    19    1
    64    18    17    1
    65    20    19    2
    66    38    39    2
    67    19    24   am
    68    54    53    1
    69    67    66    1
    70    66    65    1
    71    66    69    1
    72    70    69    1
    73    53    50    1
    74    24    25    1
    75    44    45    1
    76    69    71    1
    77    16    14    1
    78    45    48    1
    79    45    46    1
    80    27    26    2
    81    25    26    1
    82    25    28    1
    83    50    49    1
    84    50    51    1
    85    12    11    2
    86     9    10    1
    87    10    11    1
    88    10    13    1
    89    14    13    1
    90    14    15    1
    91    46    47    2
    92    51    52    2
    93    51    58   am
    94    28    29    1
    95    58    59    1
    96    30    29   ar
    97    30    32   ar
    98    29    31   ar
    99    64    62    1
   100    59    62    1
   101    59    60    1
   102    32    34   ar
   103    31    33   ar
   104    62    63    1
   105     7     5    1
   106     8     6    1
   107    60    61    2
   108    34    33   ar
   109    34    35    1
   110     6     5    1
   111     4     3    2
   112     5     2    1
   113     2     3    1
   114     2     1    1
