@<TRIPOS>MOLECULE
tmp/2rbrA00.pdb
 123 114 0 0 0
SMALL
GASTEIGER

@<TRIPOS>ATOM
      1  N        -41.9550   17.1150    3.9750 N.3    78  ILE78      -0.1245
      2  CA       -42.7120   17.1580    5.2240 C.3    78  ILE78       0.1561
      3  C        -44.1260   16.6160    5.0090 C.2    78  ILE78       0.2260
      4  O        -44.6000   15.7770    5.7750 O.2    78  ILE78      -0.2867
      5  CB       -42.7740   18.5970    5.7960 C.3    78  ILE78       0.0252
      6  CG1      -41.4210   19.0070    6.3800 C.3    78  ILE78       0.0019
      7  CG2      -43.8600   18.7250    6.8700 C.3    78  ILE78       0.0019
      8  CD1      -41.2860   20.5050    6.6230 C.3    78  ILE78       0.0001
      9  N        -44.2680   13.7020   10.3180 N.3    84  LEU84      -0.1245
     10  CA       -44.1410   15.1570   10.2720 C.3    84  LEU84       0.1561
     11  C        -45.4170   15.8800    9.8650 C.2    84  LEU84       0.2260
     12  O        -45.7200   16.9330   10.4160 O.2    84  LEU84      -0.2867
     13  CB       -42.9890   15.5770    9.3560 C.3    84  LEU84       0.0270
     14  CG       -41.6040   15.0770    9.7700 C.3    84  LEU84       0.0019
     15  CD1      -40.5670   15.5540    8.7820 C.3    84  LEU84       0.0001
     16  CD2      -41.2510   15.5030   11.2060 C.3    84  LEU84       0.0001
     17  N        -47.9650   17.1010   12.5990 N.3    87  VAL87      -0.1231
     18  CA       -47.3840   18.1500   13.4380 C.3    87  VAL87       0.1692
     19  C        -47.3110   19.4620   12.6520 C.2    87  VAL87       0.2592
     20  O        -47.7080   20.5180   13.1380 O.2    87  VAL87      -0.2718
     21  CB       -46.0010   17.7420   13.9990 C.3    87  VAL87       0.0266
     22  CG1      -45.4790   18.8100   14.9520 C.3    87  VAL87       0.0020
     23  CG2      -46.0960   16.4020   14.7070 C.3    87  VAL87       0.0020
     24  N        -46.8240   19.3840   11.4200 N.am   88  TYR88      -0.1976
     25  CA       -46.7620   20.5460   10.5610 C.3    88  TYR88       0.1639
     26  C        -48.1350   21.1920   10.4040 C.2    88  TYR88       0.2290
     27  O        -48.2830   22.4070   10.5500 O.2    88  TYR88      -0.2864
     28  CB       -46.1960   20.1340    9.2030 C.3    88  TYR88       0.0560
     29  CG       -45.9490   21.2760    8.2460 C.ar   88  TYR88      -0.0198
     30  CD1      -44.7890   22.0500    8.3330 C.ar   88  TYR88      -0.0009
     31  CD2      -46.8710   21.5810    7.2520 C.ar   88  TYR88      -0.0009
     32  CE1      -44.5570   23.0970    7.4470 C.ar   88  TYR88       0.0417
     33  CE2      -46.6540   22.6350    6.3610 C.ar   88  TYR88       0.0417
     34  CZ       -45.4940   23.3870    6.4640 C.ar   88  TYR88       0.1957
     35  OH       -45.2730   24.4340    5.5800 O.3    88  TYR88      -0.2866
     36  N        -49.4430   23.3780   13.2680 N.3    91  LEU91      -0.1245
     37  CA       -48.7590   24.6470   13.5330 C.3    91  LEU91       0.1561
     38  C        -49.3390   25.8260   12.7750 C.2    91  LEU91       0.2260
     39  O        -49.9470   25.6630   11.7110 O.2    91  LEU91      -0.2867
     40  CB       -47.2830   24.5340   13.1540 C.3    91  LEU91       0.0270
     41  CG       -46.4270   23.5150   13.9120 C.3    91  LEU91       0.0019
     42  CD1      -45.0570   23.4040   13.2500 C.3    91  LEU91       0.0001
     43  CD2      -46.2760   23.9070   15.3800 C.3    91  LEU91       0.0001
     44  N        -40.0710   24.8510   11.2650 N.3    99  ALA99      -0.1245
     45  CA       -40.0610   23.4400   10.8830 C.3    99  ALA99       0.1562
     46  C        -39.3810   23.2110    9.5310 C.2    99  ALA99       0.2260
     47  O        -38.5360   22.3090    9.3750 O.2    99  ALA99      -0.2867
     48  CB       -41.4910   22.8880   10.8750 C.3    99  ALA99       0.0290
     49  N        -35.5110   23.6820    9.8890 N.3   102  GLN102     -0.1231
     50  CA       -34.8560   22.4820   10.4240 C.3   102  GLN102      0.1698
     51  C        -34.7100   21.3890    9.3710 C.2   102  GLN102      0.2592
     52  O        -33.6400   20.7860    9.2320 O.2   102  GLN102     -0.2718
     53  CB       -35.6070   21.9250   11.6420 C.3   102  GLN102      0.0381
     54  CG       -35.3020   22.6010   12.9760 C.3   102  GLN102      0.0905
     55  CD       -35.5260   21.6750   14.1740 C.2   102  GLN102      0.2608
     56  OE1      -36.4400   20.8600   14.1850 O.2   102  GLN102     -0.2717
     57  NE2      -34.6770   21.7950   15.1790 N.am  102  GLN102     -0.0878
     58  N        -35.7890   21.1250    8.6340 N.am  103  VAL103     -0.1980
     59  CA       -35.7590   20.0700    7.6230 C.3   103  VAL103      0.1595
     60  C        -34.7850   20.4110    6.4900 C.2   103  VAL103      0.2287
     61  O        -34.0480   19.5390    6.0130 O.2   103  VAL103     -0.2864
     62  CB       -37.1730   19.7700    7.0820 C.3   103  VAL103      0.0276
     63  CG1      -37.1010   18.8850    5.8360 C.3   103  VAL103      0.0022
     64  CG2      -38.0060   19.0990    8.1650 C.3   103  VAL103      0.0022
     65  N        -35.0910   14.4560   11.2930 N.3   111  VAL111     -0.1245
     66  CA       -36.0980   15.2910   11.9610 C.3   111  VAL111      0.1561
     67  C        -37.3540   14.4940   12.3510 C.2   111  VAL111      0.2260
     68  O        -37.8870   14.6760   13.4520 O.2   111  VAL111     -0.2867
     69  CB       -36.4700   16.5320   11.1030 C.3   111  VAL111      0.0252
     70  CG1      -37.5550   17.3520   11.7700 C.3   111  VAL111      0.0019
     71  CG2      -35.2490   17.4110   10.8790 C.3   111  VAL111      0.0019
     72  N        -37.2430   12.9600   15.7840 N.3   114  PHE114     -0.1241
     73  CA       -37.2470   13.7630   17.0150 C.3   114  PHE114      0.1605
     74  C        -38.6180   13.6880   17.6800 C.2   114  PHE114      0.2264
     75  O        -39.3070   14.6890   17.9100 O.2   114  PHE114     -0.2867
     76  CB       -36.8130   15.2060   16.7510 C.3   114  PHE114      0.0534
     77  CG       -35.4860   15.3280   16.0440 C.ar  114  PHE114     -0.0203
     78  CD1      -34.4920   14.3610   16.2060 C.ar  114  PHE114     -0.0042
     79  CD2      -35.2230   16.4300   15.2360 C.ar  114  PHE114     -0.0042
     80  CE1      -33.2640   14.4810   15.5500 C.ar  114  PHE114     -0.0003
     81  CE2      -34.0000   16.5620   14.5810 C.ar  114  PHE114     -0.0003
     82  CZ       -33.0190   15.5880   14.7360 C.ar  114  PHE114     -0.0000
     83  N        -39.7900   16.0000   20.7840 N.3   117  SER117     -0.1202
     84  CA       -39.9610   17.3920   20.3750 C.3   117  SER117      0.2020
     85  C        -41.2240   17.5670   19.5510 C.2   117  SER117      0.2618
     86  O        -41.9810   18.5180   19.7530 O.2   117  SER117     -0.2717
     87  CB       -38.7760   17.8500   19.5360 C.3   117  SER117      0.2103
     88  OG       -37.5690   17.7520   20.2660 O.3   117  SER117     -0.2182
     89  N        -41.4390   16.6420   18.6200 N.am  118  LEU118     -0.1979
     90  CA       -42.6210   16.6730   17.7680 C.3   118  LEU118      0.1596
     91  C        -43.9070   16.6230   18.5890 C.2   118  LEU118      0.2287
     92  O        -44.8490   17.3790   18.3270 O.2   118  LEU118     -0.2864
     93  CB       -42.5750   15.5250   16.7650 C.3   118  LEU118      0.0297
     94  CG       -41.5330   15.6520   15.6520 C.3   118  LEU118      0.0022
     95  CD1      -41.3640   14.3170   14.9420 C.3   118  LEU118      0.0001
     96  CD2      -41.8670   16.7540   14.6530 C.3   118  LEU118      0.0001
     97  N        -44.4870   19.9020   20.3940 N.3   121  LEU121     -0.1245
     98  CA       -44.9310   20.9000   19.4270 C.3   121  LEU121      0.1561
     99  C        -46.4040   20.7070   19.0840 C.2   121  LEU121      0.2260
    100  O        -47.1610   21.6670   19.0920 O.2   121  LEU121     -0.2867
    101  CB       -44.0680   20.8550   18.1650 C.3   121  LEU121      0.0270
    102  CG       -42.6540   21.4180   18.3240 C.3   121  LEU121      0.0019
    103  CD1      -41.8440   21.1160   17.0770 C.3   121  LEU121      0.0001
    104  CD2      -42.6470   22.9140   18.6030 C.3   121  LEU121      0.0001
    105  N        -35.6920   20.9200   22.1770 N.3   133  LEU133     -0.1245
    106  CA       -35.0280   21.1480   20.8990 C.3   133  LEU133      0.1561
    107  C        -33.5420   21.4380   21.0780 C.2   133  LEU133      0.2260
    108  O        -32.7400   21.1030   20.2060 O.2   133  LEU133     -0.2867
    109  CB       -35.7040   22.2980   20.1510 C.3   133  LEU133      0.0270
    110  CG       -37.0320   21.9670   19.4640 C.3   133  LEU133      0.0019
    111  CD1      -37.8680   23.2160   19.2720 C.3   133  LEU133      0.0001
    112  CD2      -36.7860   21.2680   18.1470 C.3   133  LEU133      0.0001
    113  N        -39.9550   28.6830   17.0130 N.3   153  PHE153     -0.1241
    114  CA       -40.8350   27.6300   17.5310 C.3   153  PHE153      0.1605
    115  C        -41.4960   28.0080   18.8620 C.2   153  PHE153      0.2264
    116  O        -42.6580   27.6730   19.0870 O.2   153  PHE153     -0.2867
    117  CB       -40.0620   26.3330   17.7740 C.3   153  PHE153      0.0534
    118  CG       -39.9620   25.4100   16.5860 C.ar  153  PHE153     -0.0203
    119  CD1      -38.7190   24.9400   16.1800 C.ar  153  PHE153     -0.0042
    120  CD2      -41.1050   24.9620   15.9190 C.ar  153  PHE153     -0.0042
    121  CE1      -38.6030   24.0470   15.1080 C.ar  153  PHE153     -0.0003
    122  CE2      -41.0020   24.0740   14.8520 C.ar  153  PHE153     -0.0003
    123  CZ       -39.7520   23.6180   14.4490 C.ar  153  PHE153     -0.0000
@<TRIPOS>BOND
     1     1     2    1
     2     3     2    1
     3     3     4    2
     4     2     5    1
     5    35    34    1
     6     5     6    1
     7     5     7    1
     8    63    62    1
     9    61    60    2
    10    33    34   ar
    11    33    31   ar
    12     6     8    1
    13    34    32   ar
    14    60    59    1
    15    62    59    1
    16    62    64    1
    17    31    29   ar
    18    32    30   ar
    19    59    58    1
    20    29    30   ar
    21    29    28    1
    22    58    51   am
    23    15    14    1
    24    28    25    1
    25    52    51    2
    26    13    14    1
    27    13    10    1
    28    51    50    1
    29    47    46    2
    30    46    45    1
    31    14    16    1
    32    11    10    1
    33    11    12    2
    34    49    50    1
    35    10     9    1
    36    26    27    2
    37    26    25    1
    38    50    53    1
    39    25    24    1
    40    48    45    1
    41    71    69    1
    42    45    44    1
    43    69    70    1
    44    69    66    1
    45    65    66    1
    46    24    19   am
    47    53    54    1
    48    39    38    2
    49    66    67    1
    50    67    68    2
    51    17    18    1
    52    19    20    2
    53    19    18    1
    54    38    37    1
    55    54    55    1
    56    40    37    1
    57    40    41    1
    58    42    41    1
    59    36    37    1
    60    18    21    1
    61    41    43    1
    62    21    23    1
    63    21    22    1
    64    55    56    2
    65    55    57   am
    66   123   122   ar
    67   123   121   ar
    68    81    82   ar
    69    81    79   ar
    70    96    94    1
    71    82    80   ar
    72   122   120   ar
    73    95    94    1
    74   121   119   ar
    75    79    77   ar
    76    80    78   ar
    77    94    93    1
    78    72    73    1
    79   120   118   ar
    80    77    78   ar
    81    77    76    1
    82   119   118   ar
    83   118   117    1
    84    76    73    1
    85    93    90    1
    86   113   114    1
    87    73    74    1
    88   103   102    1
    89   114   117    1
    90   114   115    1
    91    74    75    2
    92    90    91    1
    93    90    89    1
    94   112   110    1
    95   101   102    1
    96   101    98    1
    97   102   104    1
    98    92    91    2
    99    89    85   am
   100   115   116    2
   101    99   100    2
   102    99    98    1
   103   111   110    1
   104    98    97    1
   105   110   109    1
   106    87    88    1
   107    87    84    1
   108    85    86    2
   109    85    84    1
   110   109   106    1
   111   108   107    2
   112    84    83    1
   113   106   107    1
   114   106   105    1
