@<TRIPOS>MOLECULE
tmp/2rbtA01.pdb
 94 90 0 0 0
SMALL
GASTEIGER

@<TRIPOS>ATOM
      1  N         15.0270   -7.5980    1.7310 N.3   173  HIS173     -0.1226
      2  CA        15.6750   -6.6360    2.5970 C.3   173  HIS173      0.1752
      3  C         17.0840   -7.0380    3.0110 C.2   173  HIS173      0.2596
      4  O         17.7420   -6.2620    3.6980 O.2   173  HIS173     -0.2718
      5  CB        14.7920   -6.3050    3.8140 C.3   173  HIS173      0.0759
      6  CG        13.6800   -5.3490    3.5020 C.ar  173  HIS173      0.0818
      7  ND1       12.7810   -4.9190    4.4510 N.ar  173  HIS173     -0.2268
      8  CD2       13.3610   -4.6830    2.3630 C.ar  173  HIS173      0.1154
      9  CE1       11.9660   -4.0270    3.9000 C.ar  173  HIS173      0.1986
     10  NE2       12.3000   -3.8650    2.6330 N.ar  173  HIS173     -0.2212
     11  N         17.5890   -8.1710    2.5400 N.am  174  ALA174     -0.1966
     12  CA        19.0370   -8.3890    2.5850 C.3   174  ALA174      0.1728
     13  C         19.7730   -7.4160    1.6760 C.2   174  ALA174      0.2616
     14  O         20.9720   -7.1840    1.8800 O.2   174  ALA174     -0.2715
     15  CB        19.3560   -9.7680    2.1230 C.3   174  ALA174      0.0334
     16  N         19.1020   -6.8620    0.6840 N.am  175  LEU175     -0.1963
     17  CA        19.6960   -6.0010   -0.3350 C.3   175  LEU175      0.1728
     18  C         19.6800   -4.5450    0.0350 C.2   175  LEU175      0.2617
     19  O         18.7160   -4.0480    0.5820 O.2   175  LEU175     -0.2715
     20  CB        18.9100   -6.1380   -1.6310 C.3   175  LEU175      0.0311
     21  CG        18.7390   -7.5340   -2.2460 C.3   175  LEU175      0.0022
     22  CD1       17.7400   -7.4900   -3.3710 C.3   175  LEU175      0.0001
     23  CD2       20.1120   -8.1070   -2.6760 C.3   175  LEU175      0.0001
     24  N         20.7660   -3.8410   -0.2910 N.am  176  GLY176     -0.1940
     25  CA        20.7840   -2.4160   -0.1530 C.3   176  GLY176      0.2014
     26  C         20.7670   -1.9450    1.2840 C.2   176  GLY176      0.2639
     27  O         21.3830   -2.5570    2.1480 O.2   176  GLY176     -0.2714
     28  N         20.0850   -0.8460    1.5400 N.am  177  LYS177     -0.1963
     29  CA        20.0490   -0.2780    2.8770 C.3   177  LYS177      0.1728
     30  C         18.9260    0.6920    3.0000 C.2   177  LYS177      0.2616
     31  O         18.3250    1.1220    2.0170 O.2   177  LYS177     -0.2715
     32  CB        21.3900    0.4210    3.2150 C.3   177  LYS177      0.0311
     33  CG        21.6860    1.6260    2.3630 C.3   177  LYS177      0.0038
     34  CD        23.0600    2.2570    2.6170 C.3   177  LYS177      0.0206
     35  CE        23.2060    2.9090    3.9950 C.3   177  LYS177      0.1093
     36  NZ        22.4480    4.1350    4.0880 N.3   177  LYS177     -0.1314
     37  N         18.6510    1.0820    4.2450 N.am  178  THR178     -0.1951
     38  CA        17.7820    2.1940    4.4950 C.3   178  THR178      0.1897
     39  C         18.6430    3.4750    4.5310 C.2   178  THR178      0.2313
     40  O         19.8120    3.4450    4.9570 O.2   178  THR178     -0.2863
     41  CB        16.9420    2.0080    5.7880 C.3   178  THR178      0.1794
     42  OG1       17.8060    2.0540    6.9270 O.3   178  THR178     -0.2208
     43  CG2       16.1690    0.7030    5.7790 C.3   178  THR178      0.0378
     44  N         20.5910    2.4510    7.7340 N.3   187  GLY187     -0.1225
     45  CA        21.5670    1.3910    7.8660 C.3   187  GLY187      0.1811
     46  C         21.2440    0.1670    7.0070 C.2   187  GLY187      0.2280
     47  O         20.1280    0.0100    6.5230 O.2   187  GLY187     -0.2866
     48  N         21.1550   -4.1410    6.3920 N.3   189  GLY189     -0.1225
     49  CA        20.7030   -5.2880    7.1270 C.3   189  GLY189      0.1811
     50  C         21.7380   -6.3410    7.4030 C.2   189  GLY189      0.2280
     51  O         21.5040   -7.2750    8.1580 O.2   189  GLY189     -0.2866
     52  N         18.9720  -12.1410    5.3920 N.3   200  PHE200     -0.1241
     53  CA        17.9750  -11.3950    6.1970 C.3   200  PHE200      0.1605
     54  C         17.4870  -12.2620    7.3540 C.2   200  PHE200      0.2264
     55  O         17.3590  -11.7910    8.4890 O.2   200  PHE200     -0.2867
     56  CB        16.8200  -11.0120    5.2620 C.3   200  PHE200      0.0534
     57  CG        15.6070  -10.3900    5.9360 C.ar  200  PHE200     -0.0203
     58  CD1       15.5880   -9.0820    6.3110 C.ar  200  PHE200     -0.0042
     59  CD2       14.4450  -11.1300    6.1020 C.ar  200  PHE200     -0.0042
     60  CE1       14.4350   -8.5120    6.8590 C.ar  200  PHE200     -0.0003
     61  CE2       13.3150  -10.5700    6.6550 C.ar  200  PHE200     -0.0003
     62  CZ        13.3250   -9.2740    7.0310 C.ar  200  PHE200     -0.0000
     63  N         20.7350   -3.1450   10.9260 N.3   228  MET228     -0.1230
     64  CA        19.4550   -2.6970   11.4580 C.3   228  MET228      0.1702
     65  C         18.3130   -3.4670   10.8360 C.2   228  MET228      0.2592
     66  O         18.4610   -4.0830    9.7720 O.2   228  MET228     -0.2718
     67  CB        19.2440   -1.1810   11.2790 C.3   228  MET228      0.0401
     68  CG        19.1600   -0.6880    9.8710 C.3   228  MET228      0.0596
     69  SD        17.5670   -0.8020    9.0710 S.3   228  MET228     -0.1393
     70  CE        16.5870    0.3790    9.9790 C.3   228  MET228      0.0692
     71  N         17.2010   -3.4620   11.5700 N.am  229  MET229     -0.1965
     72  CA        15.9190   -3.9830   11.1310 C.3   229  MET229      0.1736
     73  C         14.8520   -2.9310   11.3660 C.2   229  MET229      0.2616
     74  O         14.7820   -2.2950   12.4290 O.2   229  MET229     -0.2715
     75  CB        15.5600   -5.2650   11.9110 C.3   229  MET229      0.0427
     76  CG        16.4740   -6.4310   11.6150 C.3   229  MET229      0.0599
     77  SD        16.1600   -7.0960    9.9530 S.3   229  MET229     -0.1393
     78  CE        17.6170   -8.1790    9.7420 C.3   229  MET229      0.0692
     79  N         13.9950   -2.7520   10.3750 N.am  230  LEU230     -0.1977
     80  CA        12.8220   -1.9190   10.5310 C.3   230  LEU230      0.1596
     81  C         11.8670   -2.5990   11.5200 C.2   230  LEU230      0.2287
     82  O         11.8900   -3.8180   11.6770 O.2   230  LEU230     -0.2864
     83  CB        12.0830   -1.8110    9.1860 C.3   230  LEU230      0.0297
     84  CG        12.8590   -1.1350    8.0620 C.3   230  LEU230      0.0022
     85  CD1       12.1690   -1.4360    6.7170 C.3   230  LEU230      0.0001
     86  CD2       12.9430    0.3750    8.2800 C.3   230  LEU230      0.0001
     87  N         10.3240   -5.3850    9.7610 N.3   233  ASP233     -0.1239
     88  CA        11.2250   -6.5260    9.6070 C.3   233  ASP233      0.1674
     89  C         11.2120   -7.3820   10.8750 C.2   233  ASP233      0.2266
     90  O         11.0860   -8.6060   10.8460 O.2   233  ASP233     -0.2867
     91  CB        12.6670   -6.0470    9.3930 C.3   233  ASP233      0.1410
     92  CG        12.9520   -5.3640    8.0530 C.2   233  ASP233      0.3668
     93  OD1       12.2780   -5.6560    7.0440 O.co2 233  ASP233     -0.2456
     94  OD2       13.9310   -4.5470    8.0730 O.co2 233  ASP233     -0.2456
@<TRIPOS>BOND
     1    22    21    1
     2    23    21    1
     3    21    20    1
     4    20    17    1
     5    17    18    1
     6    17    16    1
     7    24    25    1
     8    24    18   am
     9    25    26    1
    10    18    19    2
    11    16    13   am
    12    26    28   am
    13    26    27    2
    14    28    29    1
    15    13    14    2
    16    13    12    1
    17     1     2    1
    18    31    30    2
    19    15    12    1
    20    33    34    1
    21    33    32    1
    22     8    10   ar
    23     8     6   ar
    24    11    12    1
    25    11     3   am
    26     2     3    1
    27     2     5    1
    28    34    35    1
    29    10     9   ar
    30    29    30    1
    31    29    32    1
    32    30    37   am
    33     3     4    2
    34     6     5    1
    35     6     7   ar
    36     9     7   ar
    37    35    36    1
    38    37    38    1
    39    38    39    1
    40    38    41    1
    41    39    40    2
    42    56    57    1
    43    56    53    1
    44    52    53    1
    45    43    41    1
    46    41    42    1
    47    57    59   ar
    48    57    58   ar
    49    59    61   ar
    50    53    54    1
    51    58    60   ar
    52    48    49    1
    53    47    46    2
    54    61    62   ar
    55    85    84    1
    56    60    62   ar
    57    46    45    1
    58    93    92   ar
    59    49    50    1
    60    54    55    2
    61    50    51    2
    62    44    45    1
    63    92    94   ar
    64    92    91    1
    65    84    86    1
    66    84    83    1
    67    69    68    1
    68    69    70    1
    69    83    80    1
    70    91    88    1
    71    88    87    1
    72    88    89    1
    73    78    77    1
    74    66    65    2
    75    68    67    1
    76    77    76    1
    77    79    80    1
    78    79    73   am
    79    80    81    1
    80    65    64    1
    81    65    71   am
    82    90    89    2
    83    63    64    1
    84    72    73    1
    85    72    71    1
    86    72    75    1
    87    67    64    1
    88    73    74    2
    89    81    82    2
    90    76    75    1
