@<TRIPOS>MOLECULE
tmp/2rbtA03.pdb
 82 75 0 0 0
SMALL
GASTEIGER

@<TRIPOS>ATOM
      1  N         21.8750   -5.3810  -17.3150 N.3    25  ALA25      -0.1245
      2  CA        22.9020   -6.1130  -16.5940 C.3    25  ALA25       0.1562
      3  C         24.2830   -5.5040  -16.8290 C.2    25  ALA25       0.2260
      4  O         25.1040   -5.4240  -15.9140 O.2    25  ALA25      -0.2867
      5  CB        22.8880   -7.5590  -16.9880 C.3    25  ALA25       0.0290
      6  N         24.4540   -2.3260  -14.8620 N.3    28  LEU28      -0.1231
      7  CA        24.6700   -2.6410  -13.4560 C.3    28  LEU28       0.1693
      8  C         26.1350   -2.8810  -13.1280 C.2    28  LEU28       0.2591
      9  O         26.6470   -2.4840  -12.0820 O.2    28  LEU28      -0.2718
     10  CB        23.8350   -3.8710  -13.0610 C.3    28  LEU28       0.0284
     11  CG        22.3510   -3.6990  -12.8010 C.3    28  LEU28       0.0019
     12  CD1       21.6890   -5.0820  -12.6220 C.3    28  LEU28       0.0001
     13  CD2       22.1530   -2.8310  -11.5610 C.3    28  LEU28       0.0001
     14  N         26.8120   -3.5890  -14.0170 N.am   29  ARG29      -0.1980
     15  CA        28.2200   -3.8640  -13.8540 C.3    29  ARG29       0.1597
     16  C         29.0410   -2.5570  -14.0100 C.2    29  ARG29       0.2287
     17  O         30.0090   -2.3310  -13.2240 O.2    29  ARG29      -0.2864
     18  CB        28.6130   -4.9860  -14.8430 C.3    29  ARG29       0.0334
     19  CG        30.0930   -5.3040  -14.9030 C.3    29  ARG29       0.0492
     20  CD        30.3680   -6.1800  -16.1140 C.3    29  ARG29       0.2205
     21  NE        29.8810   -7.5780  -15.9900 N.pl3  29  ARG29      -0.0865
     22  CZ        29.9280   -8.4860  -16.9830 C.cat  29  ARG29       0.5346
     23  NH1       30.3800   -8.1310  -18.1770 N.pl3  29  ARG29       0.1354
     24  NH2       29.5540   -9.7540  -16.7840 N.pl3  29  ARG29       0.1354
     25  N         29.0910    1.0670  -11.0460 N.3    32  ASP32      -0.1239
     26  CA        29.3090    0.3360   -9.8010 C.3    32  ASP32       0.1674
     27  C         29.4740    1.2020   -8.5690 C.2    32  ASP32       0.2266
     28  O         29.3830    0.6780   -7.4510 O.2    32  ASP32      -0.2867
     29  CB        30.5060   -0.6080   -9.9310 C.3    32  ASP32       0.1410
     30  CG        31.8210    0.1220  -10.1090 C.2    32  ASP32       0.3668
     31  OD1       31.8460    1.2340  -10.6840 O.co2  32  ASP32      -0.2456
     32  OD2       32.8220   -0.4400   -9.6400 O.co2  32  ASP32      -0.2456
     33  N         27.4330   -0.0250   -3.3800 N.3    38  ILE38      -0.1231
     34  CA        26.3810   -1.0400   -3.4060 C.3    38  ILE38       0.1692
     35  C         25.9930   -1.3520   -4.8520 C.2    38  ILE38       0.2592
     36  O         25.7410   -2.5020   -5.1920 O.2    38  ILE38      -0.2718
     37  CB        25.1710   -0.6070   -2.5760 C.3    38  ILE38       0.0266
     38  CG1       25.5680   -0.5160   -1.0950 C.3    38  ILE38       0.0019
     39  CG2       24.0060   -1.5880   -2.7640 C.3    38  ILE38       0.0020
     40  CD1       24.5480    0.2000   -0.2150 C.3    38  ILE38       0.0001
     41  N         25.9730   -0.3200   -5.6940 N.am   39  GLY39      -0.1957
     42  CA        25.4870   -0.4460   -7.0720 C.3    39  GLY39       0.1869
     43  C         23.9680   -0.3340   -7.1180 C.2    39  GLY39       0.2309
     44  O         23.2920   -0.2180   -6.0680 O.2    39  GLY39      -0.2863
     45  N         21.6250   -2.4880   -8.0720 N.3    41  GLY41      -0.1225
     46  CA        20.7530   -3.6740   -7.9950 C.3    41  GLY41       0.1811
     47  C         19.6200   -3.5200   -6.9910 C.2    41  GLY41       0.2280
     48  O         18.4600   -3.7000   -7.3390 O.2    41  GLY41      -0.2866
     49  N         21.2520  -10.9670  -11.5680 N.3   116  GLU116     -0.1231
     50  CA        22.6640  -10.5510  -11.6920 C.3   116  GLU116      0.1699
     51  C         23.3520  -10.5360  -10.3390 C.2   116  GLU116      0.2592
     52  O         24.5610  -10.7460  -10.2710 O.2   116  GLU116     -0.2718
     53  CB        22.7840   -9.2200  -12.4440 C.3   116  GLU116      0.0402
     54  CG        22.3850   -9.3290  -13.9260 C.3   116  GLU116      0.1161
     55  CD        23.2960  -10.2400  -14.7090 C.2   116  GLU116      0.3649
     56  OE1       24.5240   -9.9810  -14.6920 O.co2 116  GLU116     -0.2457
     57  OE2       22.8030  -11.2010  -15.3360 O.co2 116  GLU116     -0.2457
     58  N         22.5810  -10.3060   -9.2600 N.am  117  MET117     -0.1965
     59  CA        23.0840  -10.3910   -7.8770 C.3   117  MET117      0.1736
     60  C         23.1220  -11.8160   -7.3640 C.2   117  MET117      0.2616
     61  O         23.2590  -12.0380   -6.1570 O.2   117  MET117     -0.2715
     62  CB        22.2610   -9.4790   -6.9540 C.3   117  MET117      0.0427
     63  CG        22.5010   -8.0010   -7.2650 C.3   117  MET117      0.0599
     64  SD        21.7870   -6.8750   -6.0360 S.3   117  MET117     -0.1393
     65  CE        20.0300   -7.0870   -6.4180 C.3   117  MET117      0.0692
     66  N         23.0590  -12.7970   -8.2570 N.am  118  GLN118     -0.1977
     67  CA        23.2050  -14.2100   -7.9500 C.3   118  GLN118      0.1601
     68  C         21.9860  -14.7770   -7.2200 C.2   118  GLN118      0.2287
     69  O         22.0650  -15.8120   -6.5650 O.2   118  GLN118     -0.2864
     70  CB        24.4680  -14.5040   -7.1510 C.3   118  GLN118      0.0394
     71  CG        25.7400  -13.9860   -7.8350 C.3   118  GLN118      0.0908
     72  CD        26.9300  -13.9580   -6.8710 C.2   118  GLN118      0.2608
     73  OE1       27.2110  -14.9350   -6.1790 O.2   118  GLN118     -0.2717
     74  NE2       27.6060  -12.8140   -6.7910 N.am  118  GLN118     -0.0878
     75  N         24.7350   -6.4990   -1.7390 N.3   194  ASN194     -0.1240
     76  CA        24.5120   -6.5240   -3.1820 C.3   194  ASN194      0.1653
     77  C         24.6790   -7.9150   -3.7850 C.2   194  ASN194      0.2266
     78  O         24.8410   -8.0500   -4.9940 O.2   194  ASN194     -0.2867
     79  CB        25.2850   -5.4580   -3.9490 C.3   194  ASN194      0.1155
     80  CG        26.7540   -5.6280   -3.8640 C.2   194  ASN194      0.2627
     81  OD1       27.2740   -6.6410   -3.3920 O.2   194  ASN194     -0.2716
     82  ND2       27.4600   -4.6170   -4.3610 N.am  194  ASN194     -0.0877
@<TRIPOS>BOND
     1    23    22    1
     2     1     2    1
     3     5     2    1
     4    22    24    1
     5    22    21    2
     6     3     2    1
     7     3     4    2
     8    20    21    1
     9    20    19    1
    10    57    55   ar
    11    19    18    1
    12     6     7    1
    13    18    15    1
    14    55    56   ar
    15    55    54    1
    16    14    15    1
    17    14     8   am
    18    16    15    1
    19    16    17    2
    20    54    53    1
    21     7     8    1
    22     7    10    1
    23     8     9    2
    24    10    11    1
    25    11    12    1
    26    11    13    1
    27    53    50    1
    28    50    49    1
    29    50    51    1
    30    25    26    1
    31    31    30   ar
    32    51    52    2
    33    51    58   am
    34    30    29    1
    35    30    32   ar
    36    29    26    1
    37    26    27    1
    38    58    59    1
    39    27    28    2
    40    66    67    1
    41    66    60   am
    42    45    46    1
    43    46    47    1
    44    67    68    1
    45    67    70    1
    46    59    60    1
    47    59    62    1
    48    71    70    1
    49    71    72    1
    50    60    61    2
    51    48    47    2
    52    63    62    1
    53    63    64    1
    54    68    69    2
    55    43    42    1
    56    43    44    2
    57    42    41    1
    58    72    74   am
    59    72    73    2
    60    65    64    1
    61    41    35   am
    62    36    35    2
    63    78    77    2
    64    35    34    1
    65    82    80   am
    66    79    80    1
    67    79    76    1
    68    80    81    2
    69    77    76    1
    70    34    33    1
    71    34    37    1
    72    76    75    1
    73    39    37    1
    74    37    38    1
    75    38    40    1
