@<TRIPOS>MOLECULE
tmp/2rbuA01.pdb
 81 78 0 0 0
SMALL
GASTEIGER

@<TRIPOS>ATOM
      1  N         15.0280   -7.4970    1.6730 N.3   173  HIS173     -0.1241
      2  CA        15.6940   -6.5470    2.5850 C.3   173  HIS173      0.1621
      3  C         17.1160   -6.9270    3.0080 C.2   173  HIS173      0.2264
      4  O         17.7560   -6.1590    3.7370 O.2   173  HIS173     -0.2867
      5  CB        14.7960   -6.2310    3.7810 C.3   173  HIS173      0.0745
      6  CG        13.7670   -5.1920    3.4650 C.ar  173  HIS173      0.0817
      7  ND1       12.8370   -4.7610    4.3780 N.ar  173  HIS173     -0.2268
      8  CD2       13.5300   -4.4980    2.3190 C.ar  173  HIS173      0.1154
      9  CE1       12.0670   -3.8400    3.8140 C.ar  173  HIS173      0.1986
     10  NE2       12.4690   -3.6590    2.5650 N.ar  173  HIS173     -0.2212
     11  N         19.1070   -6.7270    0.7070 N.3   175  LEU175     -0.1231
     12  CA        19.7240   -5.8960   -0.3490 C.3   175  LEU175      0.1693
     13  C         19.7410   -4.4060    0.0380 C.2   175  LEU175      0.2593
     14  O         18.7700   -3.8890    0.5920 O.2   175  LEU175     -0.2718
     15  CB        18.9320   -6.0220   -1.6490 C.3   175  LEU175      0.0284
     16  CG        18.7610   -7.4400   -2.2420 C.3   175  LEU175      0.0019
     17  CD1       17.7450   -7.3430   -3.3820 C.3   175  LEU175      0.0001
     18  CD2       20.1300   -8.0190   -2.7150 C.3   175  LEU175      0.0001
     19  N         20.8290   -3.7190   -0.3200 N.am  176  GLY176     -0.1942
     20  CA        20.8690   -2.2610   -0.2360 C.3   176  GLY176      0.2014
     21  C         20.8020   -1.7530    1.2050 C.2   176  GLY176      0.2639
     22  O         21.2660   -2.4300    2.1420 O.2   176  GLY176     -0.2714
     23  N         20.1970   -0.5800    1.3630 N.am  177  LYS177     -0.1963
     24  CA        20.1270    0.0830    2.6600 C.3   177  LYS177      0.1728
     25  C         19.0070    1.1040    2.7120 C.2   177  LYS177      0.2616
     26  O         18.4770    1.5280    1.6720 O.2   177  LYS177     -0.2715
     27  CB        21.4520    0.8120    2.9420 C.3   177  LYS177      0.0311
     28  CG        21.6830    2.0810    2.0800 C.3   177  LYS177      0.0038
     29  CD        23.0320    2.7530    2.4160 C.3   177  LYS177      0.0206
     30  CE        23.1010    3.2890    3.8500 C.3   177  LYS177      0.1093
     31  NZ        22.6110    4.7080    4.0240 N.3   177  LYS177     -0.1314
     32  N         18.6890    1.5360    3.9280 N.am  178  THR178     -0.1951
     33  CA        17.8390    2.6820    4.1290 C.3   178  THR178      0.1897
     34  C         18.7340    3.9170    4.0470 C.2   178  THR178      0.2313
     35  O         19.9250    3.8430    4.3290 O.2   178  THR178     -0.2863
     36  CB        17.1160    2.6300    5.4930 C.3   178  THR178      0.1794
     37  OG1       18.0760    2.6010    6.5670 O.3   178  THR178     -0.2208
     38  CG2       16.2300    1.3830    5.5830 C.3   178  THR178      0.0378
     39  N         19.0300  -11.9500    5.2990 N.3   200  PHE200     -0.1241
     40  CA        18.0520  -11.1750    6.0830 C.3   200  PHE200      0.1605
     41  C         17.5400  -12.0220    7.2490 C.2   200  PHE200      0.2264
     42  O         17.4480  -11.5440    8.3980 O.2   200  PHE200     -0.2867
     43  CB        16.9010  -10.7690    5.1450 C.3   200  PHE200      0.0534
     44  CG        15.7560  -10.0960    5.8190 C.ar  200  PHE200     -0.0203
     45  CD1       15.8450   -8.7460    6.2040 C.ar  200  PHE200     -0.0042
     46  CD2       14.5420  -10.7690    5.9760 C.ar  200  PHE200     -0.0042
     47  CE1       14.7100   -8.0960    6.7830 C.ar  200  PHE200     -0.0003
     48  CE2       13.4250  -10.1220    6.5500 C.ar  200  PHE200     -0.0003
     49  CZ        13.5200   -8.7800    6.9470 C.ar  200  PHE200     -0.0000
     50  N         20.8410   -3.0380   10.6050 N.3   228  MET228     -0.1230
     51  CA        19.5760   -2.4840   11.1130 C.3   228  MET228      0.1702
     52  C         18.4100   -3.2580   10.5380 C.2   228  MET228      0.2592
     53  O         18.5620   -3.9170    9.4930 O.2   228  MET228     -0.2718
     54  CB        19.4160   -0.9630   10.8340 C.3   228  MET228      0.0401
     55  CG        19.3390   -0.5690    9.3330 C.3   228  MET228      0.0596
     56  SD        17.7140   -0.7590    8.5870 S.3   228  MET228     -0.1393
     57  CE        16.8150    0.6010    9.3290 C.3   228  MET228      0.0692
     58  N         17.2770   -3.1940   11.2480 N.am  229  MET229     -0.1965
     59  CA        15.9810   -3.7080   10.7990 C.3   229  MET229      0.1736
     60  C         14.9200   -2.6310   11.0330 C.2   229  MET229      0.2616
     61  O         14.8880   -1.9790   12.0970 O.2   229  MET229     -0.2715
     62  CB        15.6000   -4.9740   11.5890 C.3   229  MET229      0.0427
     63  CG        16.5540   -6.1790   11.3180 C.3   229  MET229      0.0599
     64  SD        16.2050   -6.8520    9.6650 S.3   229  MET229     -0.1393
     65  CE        17.6460   -7.8760    9.4560 C.3   229  MET229      0.0692
     66  N         14.0200   -2.4810   10.0630 N.am  230  LEU230     -0.1977
     67  CA        12.8300   -1.6540   10.2350 C.3   230  LEU230      0.1596
     68  C         11.9280   -2.3150   11.2810 C.2   230  LEU230      0.2287
     69  O         11.9830   -3.5270   11.4460 O.2   230  LEU230     -0.2864
     70  CB        12.0450   -1.5610    8.9100 C.3   230  LEU230      0.0297
     71  CG        12.8330   -0.9620    7.7410 C.3   230  LEU230      0.0022
     72  CD1       12.0920   -1.2070    6.4020 C.3   230  LEU230      0.0001
     73  CD2       13.0880    0.5560    7.9610 C.3   230  LEU230      0.0001
     74  N         10.3250   -5.1580    9.6500 N.3   233  ASP233     -0.1239
     75  CA        11.2670   -6.3040    9.5070 C.3   233  ASP233      0.1674
     76  C         11.2820   -7.1210   10.7940 C.2   233  ASP233      0.2266
     77  O         11.1400   -8.3620   10.8080 O.2   233  ASP233     -0.2867
     78  CB        12.7150   -5.8340    9.2650 C.3   233  ASP233      0.1410
     79  CG        12.9280   -5.1860    7.9140 C.2   233  ASP233      0.3668
     80  OD1       12.1830   -5.4880    6.9630 O.co2 233  ASP233     -0.2456
     81  OD2       13.8840   -4.3710    7.8020 O.co2 233  ASP233     -0.2456
@<TRIPOS>BOND
     1    17    16    1
     2    18    16    1
     3    16    15    1
     4    15    12    1
     5    12    13    1
     6    12    11    1
     7    19    20    1
     8    19    13   am
     9    20    21    1
    10    13    14    2
    11    21    23   am
    12    21    22    2
    13    23    24    1
    14    26    25    2
    15     1     2    1
    16    28    29    1
    17    28    27    1
    18     8    10   ar
    19     8     6   ar
    20    29    30    1
    21    10     9   ar
    22     2     3    1
    23     2     5    1
    24    24    25    1
    25    24    27    1
    26    25    32   am
    27     3     4    2
    28     6     5    1
    29     6     7   ar
    30     9     7   ar
    31    30    31    1
    32    32    33    1
    33    34    33    1
    34    34    35    2
    35    33    36    1
    36    43    44    1
    37    43    40    1
    38    39    40    1
    39    36    38    1
    40    36    37    1
    41    44    46   ar
    42    44    45   ar
    43    46    48   ar
    44    40    41    1
    45    45    47   ar
    46    72    71    1
    47    48    49   ar
    48    47    49   ar
    49    80    79   ar
    50    41    42    2
    51    71    73    1
    52    71    70    1
    53    81    79   ar
    54    79    78    1
    55    56    57    1
    56    56    55    1
    57    70    67    1
    58    78    75    1
    59    55    54    1
    60    65    64    1
    61    53    52    2
    62    75    74    1
    63    75    76    1
    64    64    63    1
    65    66    67    1
    66    66    60   am
    67    67    68    1
    68    52    51    1
    69    52    58   am
    70    50    51    1
    71    76    77    2
    72    59    60    1
    73    59    58    1
    74    59    62    1
    75    54    51    1
    76    60    61    2
    77    68    69    2
    78    63    62    1
