@<TRIPOS>MOLECULE
tmp/2rbvA01.pdb
 101 99 0 0 0
SMALL
GASTEIGER

@<TRIPOS>ATOM
      1  N         15.0520   -7.5610    1.7280 N.3   173  HIS173     -0.1226
      2  CA        15.6770   -6.5840    2.6200 C.3   173  HIS173      0.1752
      3  C         17.1080   -6.9440    3.0110 C.2   173  HIS173      0.2596
      4  O         17.7690   -6.1310    3.6380 O.2   173  HIS173     -0.2718
      5  CB        14.7810   -6.2960    3.8300 C.3   173  HIS173      0.0759
      6  CG        13.6840   -5.3250    3.5260 C.ar  173  HIS173      0.0818
      7  ND1       12.7940   -4.8890    4.4800 N.ar  173  HIS173     -0.2268
      8  CD2       13.3540   -4.6760    2.3820 C.ar  173  HIS173      0.1154
      9  CE1       11.9660   -4.0150    3.9370 C.ar  173  HIS173      0.1986
     10  NE2       12.2970   -3.8530    2.6660 N.ar  173  HIS173     -0.2212
     11  N         17.6100   -8.1060    2.6040 N.am  174  ALA174     -0.1966
     12  CA        19.0610   -8.3400    2.6570 C.3   174  ALA174      0.1728
     13  C         19.8260   -7.2860    1.8400 C.2   174  ALA174      0.2616
     14  O         20.9870   -6.9520    2.1400 O.2   174  ALA174     -0.2715
     15  CB        19.3920   -9.7190    2.1420 C.3   174  ALA174      0.0334
     16  N         19.1680   -6.7800    0.7950 N.am  175  LEU175     -0.1963
     17  CA        19.7990   -5.9350   -0.2080 C.3   175  LEU175      0.1728
     18  C         19.8380   -4.4660    0.1790 C.2   175  LEU175      0.2617
     19  O         18.8890   -3.9440    0.7610 O.2   175  LEU175     -0.2715
     20  CB        19.0320   -6.0480   -1.5250 C.3   175  LEU175      0.0311
     21  CG        18.8790   -7.4430   -2.1430 C.3   175  LEU175      0.0022
     22  CD1       17.8920   -7.3560   -3.3000 C.3   175  LEU175      0.0001
     23  CD2       20.2290   -7.9890   -2.5920 C.3   175  LEU175      0.0001
     24  N         20.9300   -3.7910   -0.1880 N.am  176  GLY176     -0.1940
     25  CA        20.9860   -2.3490   -0.1090 C.3   176  GLY176      0.2014
     26  C         21.0300   -1.8270    1.3090 C.2   176  GLY176      0.2639
     27  O         21.7000   -2.4010    2.1780 O.2   176  GLY176     -0.2714
     28  N         20.3350   -0.7200    1.5390 N.am  177  LYS177     -0.1963
     29  CA        20.3060   -0.1160    2.8650 C.3   177  LYS177      0.1728
     30  C         19.1310    0.8310    2.9730 C.2   177  LYS177      0.2616
     31  O         18.5620    1.2640    1.9690 O.2   177  LYS177     -0.2715
     32  CB        21.6150    0.6300    3.1580 C.3   177  LYS177      0.0311
     33  CG        21.8440    1.8650    2.3130 C.3   177  LYS177      0.0038
     34  CD        23.2270    2.4860    2.5400 C.3   177  LYS177      0.0206
     35  CE        23.3700    3.1300    3.9200 C.3   177  LYS177      0.1093
     36  NZ        22.5140    4.3180    4.0820 N.3   177  LYS177     -0.1314
     37  N         18.7700    1.1620    4.2080 N.am  178  THR178     -0.1951
     38  CA        17.8740    2.2690    4.4490 C.3   178  THR178      0.1897
     39  C         18.7180    3.5570    4.4790 C.2   178  THR178      0.2313
     40  O         19.8910    3.5290    4.8870 O.2   178  THR178     -0.2863
     41  CB        17.0480    2.0750    5.7490 C.3   178  THR178      0.1794
     42  OG1       17.9070    2.0920    6.8910 O.3   178  THR178     -0.2208
     43  CG2       16.2570    0.7610    5.7290 C.3   178  THR178      0.0378
     44  N         20.7060    2.5550    7.6360 N.3   187  GLY187     -0.1210
     45  CA        21.6960    1.5070    7.7630 C.3   187  GLY187      0.1940
     46  C         21.3930    0.2700    6.9310 C.2   187  GLY187      0.2454
     47  O         20.2590    0.0750    6.4840 O.2   187  GLY187     -0.2732
     48  N         22.4090   -0.5720    6.7340 N.am  188  PRO188     -0.2717
     49  CA        22.2590   -1.8410    6.0260 C.3   188  PRO188      0.1535
     50  C         21.7310   -2.9070    6.9780 C.2   188  PRO188      0.2599
     51  O         21.7270   -2.6910    8.1860 O.2   188  PRO188     -0.2715
     52  CB        23.6840   -2.1510    5.6010 C.3   188  PRO188      0.0310
     53  CG        24.5130   -1.6060    6.7460 C.3   188  PRO188      0.0237
     54  CD        23.7990   -0.3680    7.1980 C.3   188  PRO188      0.0939
     55  N         21.2920   -4.0390    6.4350 N.am  189  GLY189     -0.1955
     56  CA        20.8270   -5.1600    7.2430 C.3   189  GLY189      0.1869
     57  C         21.8600   -6.2460    7.4830 C.2   189  GLY189      0.2309
     58  O         21.6370   -7.1720    8.2620 O.2   189  GLY189     -0.2863
     59  N         19.0260  -12.0730    5.3660 N.3   200  PHE200     -0.1241
     60  CA        18.0170  -11.3450    6.1660 C.3   200  PHE200      0.1605
     61  C         17.5460  -12.2080    7.3300 C.2   200  PHE200      0.2264
     62  O         17.4470  -11.7430    8.4670 O.2   200  PHE200     -0.2867
     63  CB        16.8500  -10.9830    5.2520 C.3   200  PHE200      0.0534
     64  CG        15.6490  -10.3730    5.9370 C.ar  200  PHE200     -0.0203
     65  CD1       15.6410   -9.0570    6.3430 C.ar  200  PHE200     -0.0042
     66  CD2       14.4860  -11.1220    6.0900 C.ar  200  PHE200     -0.0042
     67  CE1       14.5060   -8.5050    6.9100 C.ar  200  PHE200     -0.0003
     68  CE2       13.3540  -10.5770    6.6560 C.ar  200  PHE200     -0.0003
     69  CZ        13.3680   -9.2690    7.0770 C.ar  200  PHE200     -0.0000
     70  N         20.8270   -3.0150   10.8690 N.3   228  MET228     -0.1230
     71  CA        19.5430   -2.5920   11.3850 C.3   228  MET228      0.1702
     72  C         18.4080   -3.3720   10.7520 C.2   228  MET228      0.2592
     73  O         18.5500   -3.9440    9.6570 O.2   228  MET228     -0.2718
     74  CB        19.3350   -1.0800   11.2030 C.3   228  MET228      0.0401
     75  CG        19.2850   -0.5990    9.7610 C.3   228  MET228      0.0596
     76  SD        17.6610   -0.7480    8.9550 S.3   228  MET228     -0.1393
     77  CE        16.6840    0.4350    9.8830 C.3   228  MET228      0.0692
     78  N         17.3030   -3.3960   11.4960 N.am  229  MET229     -0.1965
     79  CA        16.0280   -3.9420   11.0540 C.3   229  MET229      0.1736
     80  C         14.9350   -2.9100   11.3150 C.2   229  MET229      0.2616
     81  O         14.9020   -2.2770   12.3850 O.2   229  MET229     -0.2715
     82  CB        15.7280   -5.2440   11.8080 C.3   229  MET229      0.0427
     83  CG        16.6690   -6.3830   11.4700 C.3   229  MET229      0.0599
     84  SD        16.3470   -7.0390    9.8240 S.3   229  MET229     -0.1393
     85  CE        17.7860   -8.1020    9.6090 C.3   229  MET229      0.0692
     86  N         14.0420   -2.7280   10.3460 N.am  230  LEU230     -0.1977
     87  CA        12.8460   -1.9120   10.5360 C.3   230  LEU230      0.1596
     88  C         11.9370   -2.5750   11.5580 C.2   230  LEU230      0.2287
     89  O         11.9880   -3.7880   11.7380 O.2   230  LEU230     -0.2864
     90  CB        12.0620   -1.7950    9.2320 C.3   230  LEU230      0.0297
     91  CG        12.8030   -1.1530    8.0670 C.3   230  LEU230      0.0022
     92  CD1       12.0650   -1.4420    6.7620 C.3   230  LEU230      0.0001
     93  CD2       12.9780    0.3540    8.2840 C.3   230  LEU230      0.0001
     94  N         10.3750   -5.3670    9.7990 N.3   233  ASP233     -0.1239
     95  CA        11.3020   -6.5020    9.6560 C.3   233  ASP233      0.1674
     96  C         11.2990   -7.3480   10.9340 C.2   233  ASP233      0.2266
     97  O         11.1710   -8.5730   10.9070 O.2   233  ASP233     -0.2867
     98  CB        12.7540   -6.0270    9.4610 C.3   233  ASP233      0.1410
     99  CG        13.0350   -5.3520    8.1290 C.2   233  ASP233      0.3668
    100  OD1       12.3310   -5.5880    7.1300 O.co2 233  ASP233     -0.2456
    101  OD2       14.0420   -4.5880    8.1020 O.co2 233  ASP233     -0.2456
@<TRIPOS>BOND
     1    22    21    1
     2    23    21    1
     3    21    20    1
     4    20    17    1
     5    17    18    1
     6    17    16    1
     7    24    25    1
     8    24    18   am
     9    25    26    1
    10    18    19    2
    11    16    13   am
    12    26    28   am
    13    26    27    2
    14    28    29    1
    15     1     2    1
    16    13    14    2
    17    13    12    1
    18    31    30    2
    19    15    12    1
    20    33    34    1
    21    33    32    1
    22     8    10   ar
    23     8     6   ar
    24    34    35    1
    25    11    12    1
    26    11     3   am
    27     2     3    1
    28     2     5    1
    29    10     9   ar
    30    29    30    1
    31    29    32    1
    32    30    37   am
    33     3     4    2
    34     6     5    1
    35     6     7   ar
    36    35    36    1
    37     9     7   ar
    38    37    38    1
    39    38    39    1
    40    38    41    1
    41    39    40    2
    42    63    64    1
    43    63    60    1
    44    59    60    1
    45    52    49    1
    46    52    53    1
    47    43    41    1
    48    41    42    1
    49    64    66   ar
    50    64    65   ar
    51    49    48    1
    52    49    50    1
    53    66    68   ar
    54    60    61    1
    55    65    67   ar
    56    55    50   am
    57    55    56    1
    58    47    46    2
    59    68    69   ar
    60    48    46   am
    61    48    54    1
    62    53    54    1
    63    92    91    1
    64    67    69   ar
    65    46    45    1
    66    50    51    2
    67   100    99   ar
    68    56    57    1
    69    61    62    2
    70    57    58    2
    71    44    45    1
    72    91    93    1
    73    91    90    1
    74   101    99   ar
    75    99    98    1
    76    76    75    1
    77    76    77    1
    78    90    87    1
    79    98    95    1
    80    85    84    1
    81    95    94    1
    82    95    96    1
    83    73    72    2
    84    75    74    1
    85    84    83    1
    86    86    87    1
    87    86    80   am
    88    87    88    1
    89    72    71    1
    90    72    78   am
    91    70    71    1
    92    97    96    2
    93    79    80    1
    94    79    78    1
    95    79    82    1
    96    74    71    1
    97    80    81    2
    98    83    82    1
    99    88    89    2
