@<TRIPOS>MOLECULE
tmp/2rbwA01.pdb
 86 84 0 0 0
SMALL
GASTEIGER

@<TRIPOS>ATOM
      1  N         15.0280   -7.4010    1.8210 N.3   173  HIS173     -0.1226
      2  CA        15.6450   -6.4580    2.7460 C.3   173  HIS173      0.1752
      3  C         17.0440   -6.8550    3.2200 C.2   173  HIS173      0.2596
      4  O         17.6040   -6.1960    4.0940 O.2   173  HIS173     -0.2718
      5  CB        14.7080   -6.1500    3.9100 C.3   173  HIS173      0.0759
      6  CG        13.6400   -5.1480    3.5640 C.ar  173  HIS173      0.0818
      7  ND1       12.6300   -4.8020    4.4290 N.ar  173  HIS173     -0.2268
      8  CD2       13.4130   -4.4390    2.4290 C.ar  173  HIS173      0.1154
      9  CE1       11.8510   -3.9030    3.8600 C.ar  173  HIS173      0.1986
     10  NE2       12.3010   -3.6680    2.6410 N.ar  173  HIS173     -0.2212
     11  N         17.6020   -7.9160    2.6490 N.am  174  ALA174     -0.1966
     12  CA        19.0480   -8.1560    2.7320 C.3   174  ALA174      0.1728
     13  C         19.8170   -7.1970    1.8230 C.2   174  ALA174      0.2616
     14  O         21.0270   -7.0140    1.9870 O.2   174  ALA174     -0.2715
     15  CB        19.3670   -9.5660    2.3290 C.3   174  ALA174      0.0334
     16  N         19.1190   -6.6350    0.8360 N.am  175  LEU175     -0.1963
     17  CA        19.7530   -5.8620   -0.2400 C.3   175  LEU175      0.1728
     18  C         19.8130   -4.3670    0.0540 C.2   175  LEU175      0.2617
     19  O         18.8590   -3.7760    0.5680 O.2   175  LEU175     -0.2715
     20  CB        18.9890   -6.0600   -1.5500 C.3   175  LEU175      0.0311
     21  CG        18.7930   -7.5080   -2.0370 C.3   175  LEU175      0.0022
     22  CD1       17.7550   -7.5160   -3.1720 C.3   175  LEU175      0.0001
     23  CD2       20.1130   -8.0910   -2.4850 C.3   175  LEU175      0.0001
     24  N         20.9280   -3.7400   -0.3190 N.am  176  GLY176     -0.1940
     25  CA        20.9930   -2.3000   -0.3050 C.3   176  GLY176      0.2014
     26  C         20.9420   -1.7180    1.1010 C.2   176  GLY176      0.2639
     27  O         21.5170   -2.2640    2.0190 O.2   176  GLY176     -0.2714
     28  N         20.2450   -0.6020    1.2590 N.am  177  LYS177     -0.1963
     29  CA        20.1800    0.0710    2.5670 C.3   177  LYS177      0.1728
     30  C         19.0430    1.0650    2.6160 C.2   177  LYS177      0.2616
     31  O         18.4250    1.3790    1.6010 O.2   177  LYS177     -0.2715
     32  CB        21.5030    0.8040    2.8430 C.3   177  LYS177      0.0311
     33  CG        21.7350    2.0410    1.9730 C.3   177  LYS177      0.0038
     34  CD        23.1110    2.6540    2.2090 C.3   177  LYS177      0.0206
     35  CE        23.1870    3.3920    3.5500 C.3   177  LYS177      0.1093
     36  NZ        22.4310    4.6660    3.5680 N.3   177  LYS177     -0.1314
     37  N         18.7950    1.5690    3.8270 N.am  178  THR178     -0.1951
     38  CA        17.8760    2.6590    4.0290 C.3   178  THR178      0.1897
     39  C         18.7040    3.9520    4.0400 C.2   178  THR178      0.2313
     40  O         19.8940    3.9280    4.3550 O.2   178  THR178     -0.2863
     41  CB        17.0630    2.5230    5.3480 C.3   178  THR178      0.1794
     42  OG1       17.9350    2.6230    6.4790 O.3   178  THR178     -0.2208
     43  CG2       16.3040    1.2100    5.4030 C.3   178  THR178      0.0378
     44  N         20.8160    3.1070    7.3620 N.3   187  GLY187     -0.1210
     45  CA        21.6770    1.9560    7.4860 C.3   187  GLY187      0.1940
     46  C         21.1750    0.7350    6.7320 C.2   187  GLY187      0.2453
     47  O         20.0350    0.7070    6.2590 O.2   187  GLY187     -0.2732
     48  N         22.0220   -0.2860    6.6230 N.am  188  PRO188     -0.2728
     49  CA        23.4150   -0.3310    7.0770 C.3   188  PRO188      0.1401
     50  C         24.3420    0.5620    6.2690 C.2   188  PRO188      0.2269
     51  O         23.9980    0.9800    5.1620 O.2   188  PRO188     -0.2865
     52  CB        23.8000   -1.7840    6.8310 C.3   188  PRO188      0.0296
     53  CG        22.9400   -2.1780    5.7000 C.3   188  PRO188      0.0237
     54  CD        21.6430   -1.5390    5.9440 C.3   188  PRO188      0.0939
     55  N         20.7300   -3.4580   10.3240 N.3   228  MET228     -0.1230
     56  CA        19.5250   -2.8160   10.8240 C.3   228  MET228      0.1702
     57  C         18.2920   -3.4270   10.2070 C.2   228  MET228      0.2592
     58  O         18.3170   -3.9990    9.1070 O.2   228  MET228     -0.2718
     59  CB        19.5350   -1.2820   10.6730 C.3   228  MET228      0.0401
     60  CG        19.4560   -0.7440    9.2500 C.3   228  MET228      0.0596
     61  SD        17.8220   -0.8640    8.4660 S.3   228  MET228     -0.1393
     62  CE        16.9890    0.6300    9.0130 C.3   228  MET228      0.0692
     63  N         17.2120   -3.3360   10.9800 N.am  229  MET229     -0.1965
     64  CA        15.8990   -3.8380   10.6230 C.3   229  MET229      0.1736
     65  C         14.8600   -2.7740   10.9440 C.2   229  MET229      0.2616
     66  O         14.9290   -2.0970   11.9810 O.2   229  MET229     -0.2715
     67  CB        15.5550   -5.1080   11.4030 C.3   229  MET229      0.0427
     68  CG        16.4550   -6.2920   11.1320 C.3   229  MET229      0.0599
     69  SD        16.1520   -7.0000    9.4880 S.3   229  MET229     -0.1393
     70  CE        17.5170   -8.1720    9.4460 C.3   229  MET229      0.0692
     71  N         13.8770   -2.6340   10.0690 N.am  230  LEU230     -0.1977
     72  CA        12.7120   -1.8100   10.3590 C.3   230  LEU230      0.1596
     73  C         11.8490   -2.4890   11.4070 C.2   230  LEU230      0.2287
     74  O         11.8870   -3.7030   11.5470 O.2   230  LEU230     -0.2864
     75  CB        11.8440   -1.6210    9.1210 C.3   230  LEU230      0.0297
     76  CG        12.5070   -1.0170    7.8880 C.3   230  LEU230      0.0022
     77  CD1       11.5500   -1.1230    6.7000 C.3   230  LEU230      0.0001
     78  CD2       12.9380    0.4380    8.1250 C.3   230  LEU230      0.0001
     79  N         10.1910   -5.2870    9.7500 N.3   233  ASP233     -0.1239
     80  CA        11.0890   -6.4450    9.5620 C.3   233  ASP233      0.1674
     81  C         11.1480   -7.2710   10.8450 C.2   233  ASP233      0.2266
     82  O         10.9930   -8.4870   10.8440 O.2   233  ASP233     -0.2867
     83  CB        12.5130   -5.9860    9.2350 C.3   233  ASP233      0.1410
     84  CG        12.6440   -5.3130    7.8890 C.2   233  ASP233      0.3668
     85  OD1       11.9570   -5.7290    6.9290 O.co2 233  ASP233     -0.2456
     86  OD2       13.4850   -4.3800    7.8030 O.co2 233  ASP233     -0.2456
@<TRIPOS>BOND
     1    22    21    1
     2    23    21    1
     3    21    20    1
     4    20    17    1
     5    24    25    1
     6    24    18   am
     7    25    26    1
     8    17    18    1
     9    17    16    1
    10    18    19    2
    11    16    13   am
    12    26    28   am
    13    26    27    2
    14    28    29    1
    15    31    30    2
    16     1     2    1
    17    13    14    2
    18    13    12    1
    19    33    34    1
    20    33    32    1
    21    34    35    1
    22    15    12    1
    23     8    10   ar
    24     8     6   ar
    25    29    30    1
    26    29    32    1
    27    30    37   am
    28    10     9   ar
    29    11    12    1
    30    11     3   am
    31     2     3    1
    32     2     5    1
    33     3     4    2
    34    35    36    1
    35     6     5    1
    36     6     7   ar
    37    37    38    1
    38     9     7   ar
    39    38    39    1
    40    38    41    1
    41    39    40    2
    42    51    50    2
    43    41    43    1
    44    41    42    1
    45    53    54    1
    46    53    52    1
    47    54    48    1
    48    47    46    2
    49    50    49    1
    50    48    46   am
    51    48    49    1
    52    77    76    1
    53    46    45    1
    54    52    49    1
    55    85    84   ar
    56    44    45    1
    57    86    84   ar
    58    76    78    1
    59    76    75    1
    60    84    83    1
    61    61    62    1
    62    61    60    1
    63    58    57    2
    64    75    72    1
    65    83    80    1
    66    60    59    1
    67    70    69    1
    68    69    68    1
    69    80    79    1
    70    80    81    1
    71    71    72    1
    72    71    65   am
    73    57    56    1
    74    57    63   am
    75    55    56    1
    76    72    73    1
    77    64    65    1
    78    64    63    1
    79    64    67    1
    80    59    56    1
    81    82    81    2
    82    65    66    2
    83    68    67    1
    84    73    74    2
