@<TRIPOS>MOLECULE
tmp/2rbxA01.pdb
 103 100 0 0 0
SMALL
GASTEIGER

@<TRIPOS>ATOM
      1  N         14.1400   -9.6510    0.4450 N.3   172  ALA172     -0.1231
      2  CA        14.8000   -8.6450   -0.3910 C.3   172  ALA172      0.1694
      3  C         15.4440   -7.5510    0.4530 C.2   172  ALA172      0.2592
      4  O         16.3030   -6.8010   -0.0390 O.2   172  ALA172     -0.2718
      5  CB        13.8130   -8.0540   -1.3920 C.3   172  ALA172      0.0304
      6  N         15.0580   -7.4570    1.7310 N.am  173  HIS173     -0.1962
      7  CA        15.6760   -6.4670    2.6060 C.3   173  HIS173      0.1787
      8  C         17.1090   -6.8100    3.0150 C.2   173  HIS173      0.2620
      9  O         17.7420   -6.0200    3.7180 O.2   173  HIS173     -0.2715
     10  CB        14.7760   -6.1640    3.8050 C.3   173  HIS173      0.0785
     11  CG        13.7230   -5.1460    3.5000 C.ar  173  HIS173      0.0821
     12  ND1       12.7620   -4.7730    4.4130 N.ar  173  HIS173     -0.2267
     13  CD2       13.4590   -4.4460    2.3670 C.ar  173  HIS173      0.1154
     14  CE1       11.9710   -3.8650    3.8670 C.ar  173  HIS173      0.1986
     15  NE2       12.3760   -3.6440    2.6270 N.ar  173  HIS173     -0.2212
     16  N         17.6130   -7.9510    2.5500 N.am  174  ALA174     -0.1963
     17  CA        19.0730   -8.1910    2.5500 C.3   174  ALA174      0.1728
     18  C         19.8170   -7.2030    1.6460 C.2   174  ALA174      0.2616
     19  O         21.0240   -6.9470    1.8290 O.2   174  ALA174     -0.2715
     20  CB        19.3860   -9.6070    2.1170 C.3   174  ALA174      0.0334
     21  N         19.0930   -6.6630    0.6660 N.am  175  LEU175     -0.1963
     22  CA        19.6940   -5.8430   -0.3950 C.3   175  LEU175      0.1728
     23  C         19.7170   -4.3650   -0.0540 C.2   175  LEU175      0.2617
     24  O         18.7650   -3.8400    0.5220 O.2   175  LEU175     -0.2715
     25  CB        18.8950   -6.0140   -1.6890 C.3   175  LEU175      0.0311
     26  CG        18.7310   -7.4430   -2.2400 C.3   175  LEU175      0.0022
     27  CD1       17.7090   -7.4320   -3.3790 C.3   175  LEU175      0.0001
     28  CD2       20.0770   -8.0340   -2.7010 C.3   175  LEU175      0.0001
     29  N         20.7960   -3.6820   -0.4380 N.am  176  GLY176     -0.1940
     30  CA        20.8380   -2.2310   -0.3330 C.3   176  GLY176      0.2014
     31  C         20.7930   -1.7600    1.1070 C.2   176  GLY176      0.2639
     32  O         21.3740   -2.3900    1.9940 O.2   176  GLY176     -0.2714
     33  N         20.1010   -0.6540    1.3290 N.am  177  LYS177     -0.1963
     34  CA        20.0360   -0.0700    2.6620 C.3   177  LYS177      0.1728
     35  C         18.8980    0.9290    2.7600 C.2   177  LYS177      0.2616
     36  O         18.3090    1.3290    1.7520 O.2   177  LYS177     -0.2715
     37  CB        21.3710    0.6270    2.9830 C.3   177  LYS177      0.0311
     38  CG        21.6430    1.8760    2.1350 C.3   177  LYS177      0.0038
     39  CD        23.0500    2.4370    2.3540 C.3   177  LYS177      0.0206
     40  CE        23.1970    3.0880    3.7400 C.3   177  LYS177      0.1093
     41  NZ        22.4460    4.3480    3.8030 N.3   177  LYS177     -0.1314
     42  N         18.6000    1.3340    3.9950 N.am  178  THR178     -0.1951
     43  CA        17.7150    2.4610    4.2220 C.3   178  THR178      0.1897
     44  C         18.5640    3.7360    4.2340 C.2   178  THR178      0.2313
     45  O         19.7360    3.6950    4.6410 O.2   178  THR178     -0.2863
     46  CB        16.9070    2.3080    5.5400 C.3   178  THR178      0.1794
     47  OG1       17.8020    2.2760    6.6520 O.3   178  THR178     -0.2208
     48  CG2       16.0600    1.0200    5.5340 C.3   178  THR178      0.0378
     49  N         22.0520   -0.5660    6.6620 N.3   188  PRO188     -0.2102
     50  CA        21.8190   -1.8000    5.9090 C.3   188  PRO188      0.1504
     51  C         21.2550   -2.9490    6.7400 C.2   188  PRO188      0.2576
     52  O         21.3870   -2.9420    7.9580 O.2   188  PRO188     -0.2718
     53  CB        23.2250   -2.1860    5.4690 C.3   188  PRO188      0.0282
     54  CG        24.0980   -1.7450    6.6280 C.3   188  PRO188      0.0208
     55  CD        23.4330   -0.5070    7.2030 C.3   188  PRO188      0.0893
     56  N         20.6790   -3.9510    6.0770 N.am  189  GLY189     -0.1943
     57  CA        20.1610   -5.1300    6.7680 C.3   189  GLY189      0.2014
     58  C         21.1990   -6.2200    6.9850 C.2   189  GLY189      0.2639
     59  O         20.9480   -7.2010    7.6970 O.2   189  GLY189     -0.2714
     60  N         22.3690   -6.0570    6.3730 N.am  190  GLY190     -0.1954
     61  CA        23.4580   -7.0270    6.5150 C.3   190  GLY190      0.1869
     62  C         24.7280   -6.6400    5.7630 C.2   190  GLY190      0.2309
     63  O         24.8990   -5.4880    5.3560 O.2   190  GLY190     -0.2863
     64  N         25.2450   -6.7710    0.8200 N.3   193  ASN193     -0.1240
     65  CA        24.0690   -6.0140    0.3980 C.3   193  ASN193      0.1653
     66  C         23.9010   -5.7300   -1.0980 C.2   193  ASN193      0.2266
     67  O         22.9290   -5.0950   -1.4820 O.2   193  ASN193     -0.2867
     68  CB        23.8370   -4.7700    1.2660 C.3   193  ASN193      0.1155
     69  CG        24.9130   -3.7210    1.0970 C.2   193  ASN193      0.2627
     70  OD1       25.9730   -3.9830    0.5220 O.2   193  ASN193     -0.2716
     71  ND2       24.6450   -2.5160    1.6030 N.am  193  ASN193     -0.0877
     72  N         20.6900   -3.0990   10.5870 N.3   228  MET228     -0.1230
     73  CA        19.4510   -2.5380   11.0980 C.3   228  MET228      0.1702
     74  C         18.2800   -3.3220   10.5340 C.2   228  MET228      0.2592
     75  O         18.3820   -3.9450    9.4640 O.2   228  MET228     -0.2718
     76  CB        19.2970   -1.0220   10.8170 C.3   228  MET228      0.0401
     77  CG        19.1180   -0.6330    9.3610 C.3   228  MET228      0.0596
     78  SD        17.4420   -0.8370    8.7050 S.3   228  MET228     -0.1393
     79  CE        16.5460    0.4560    9.5710 C.3   228  MET228      0.0692
     80  N         17.1850   -3.2800   11.2810 N.am  229  MET229     -0.1965
     81  CA        15.8990   -3.8100   10.8480 C.3   229  MET229      0.1736
     82  C         14.8310   -2.7560   11.0840 C.2   229  MET229      0.2616
     83  O         14.8200   -2.0760   12.1300 O.2   229  MET229     -0.2715
     84  CB        15.5380   -5.0780   11.6300 C.3   229  MET229      0.0427
     85  CG        16.4240   -6.2820   11.3380 C.3   229  MET229      0.0599
     86  SD        16.0920   -6.9480    9.6880 S.3   229  MET229     -0.1393
     87  CE        17.5430   -8.0060    9.5020 C.3   229  MET229      0.0692
     88  N         13.9320   -2.6010   10.1180 N.am  230  LEU230     -0.1977
     89  CA        12.7680   -1.7480   10.3220 C.3   230  LEU230      0.1596
     90  C         11.8350   -2.3920   11.3460 C.2   230  LEU230      0.2287
     91  O         11.8660   -3.6120   11.5160 O.2   230  LEU230     -0.2864
     92  CB        12.0140   -1.5990    9.0020 C.3   230  LEU230      0.0297
     93  CG        12.7830   -0.9420    7.8670 C.3   230  LEU230      0.0022
     94  CD1       12.1100   -1.2610    6.5360 C.3   230  LEU230      0.0001
     95  CD2       12.8810    0.5620    8.1040 C.3   230  LEU230      0.0001
     96  N         10.2160   -5.2050    9.6610 N.3   233  ASP233     -0.1239
     97  CA        11.1250   -6.3610    9.5050 C.3   233  ASP233      0.1674
     98  C         11.1590   -7.1770   10.7990 C.2   233  ASP233      0.2266
     99  O         11.0190   -8.4070   10.7960 O.2   233  ASP233     -0.2867
    100  CB        12.5670   -5.9100    9.2290 C.3   233  ASP233      0.1410
    101  CG        12.7480   -5.2370    7.8860 C.2   233  ASP233      0.3668
    102  OD1       12.0490   -5.6150    6.9140 O.co2 233  ASP233     -0.2456
    103  OD2       13.6580   -4.3680    7.8080 O.co2 233  ASP233     -0.2456
@<TRIPOS>BOND
     1    27    26    1
     2    28    26    1
     3    26    25    1
     4    25    22    1
     5    67    66    2
     6     5     2    1
     7    66    65    1
     8    29    30    1
     9    29    23   am
    10    22    23    1
    11    22    21    1
    12     2     1    1
    13     2     3    1
    14    30    31    1
    15    23    24    2
    16     4     3    2
    17    65    64    1
    18    65    68    1
    19     3     6   am
    20    70    69    2
    21    21    18   am
    22    69    68    1
    23    69    71   am
    24    31    33   am
    25    31    32    2
    26    33    34    1
    27    18    19    2
    28    18    17    1
    29     6     7    1
    30    36    35    2
    31    20    17    1
    32    38    39    1
    33    38    37    1
    34    39    40    1
    35    13    15   ar
    36    13    11   ar
    37    16    17    1
    38    16     8   am
    39     7     8    1
    40     7    10    1
    41    15    14   ar
    42    34    35    1
    43    34    37    1
    44    35    42   am
    45     8     9    2
    46    11    10    1
    47    11    12   ar
    48    40    41    1
    49    14    12   ar
    50    42    43    1
    51    43    44    1
    52    43    46    1
    53    44    45    2
    54    63    62    2
    55    53    50    1
    56    53    54    1
    57    48    46    1
    58    46    47    1
    59    62    61    1
    60    50    49    1
    61    50    51    1
    62    56    51   am
    63    56    57    1
    64    60    61    1
    65    60    58   am
    66    94    93    1
    67    54    55    1
    68    49    55    1
    69    51    52    2
    70    57    58    1
    71   102   101   ar
    72    58    59    2
    73   103   101   ar
    74    93    95    1
    75    93    92    1
    76   101   100    1
    77    78    77    1
    78    78    79    1
    79    92    89    1
    80   100    97    1
    81    77    76    1
    82    75    74    2
    83    87    86    1
    84    97    96    1
    85    97    98    1
    86    86    85    1
    87    88    89    1
    88    88    82   am
    89    89    90    1
    90    74    73    1
    91    74    80   am
    92    72    73    1
    93    99    98    2
    94    76    73    1
    95    81    82    1
    96    81    80    1
    97    81    84    1
    98    82    83    2
    99    85    84    1
   100    90    91    2
