@<TRIPOS>MOLECULE
tmp/2rbzA01.pdb
 85 82 0 0 0
SMALL
GASTEIGER

@<TRIPOS>ATOM
      1  N         15.1960   -7.6690    1.9300 N.3   173  HIS173     -0.1241
      2  CA        15.8230   -6.6890    2.8270 C.3   173  HIS173      0.1621
      3  C         17.2840   -6.9960    3.1950 C.2   173  HIS173      0.2264
      4  O         17.9670   -6.1730    3.8310 O.2   173  HIS173     -0.2867
      5  CB        14.9320   -6.4710    4.0600 C.3   173  HIS173      0.0745
      6  CG        13.8390   -5.4920    3.7940 C.ar  173  HIS173      0.0817
      7  ND1       12.8320   -5.2080    4.6910 N.ar  173  HIS173     -0.2268
      8  CD2       13.6120   -4.7160    2.7030 C.ar  173  HIS173      0.1154
      9  CE1       12.0230   -4.3040    4.1510 C.ar  173  HIS173      0.1986
     10  NE2       12.4940   -3.9740    2.9560 N.ar  173  HIS173     -0.2212
     11  N         19.2470   -6.8940    0.8280 N.3   175  LEU175     -0.1231
     12  CA        19.8510   -6.0540   -0.2170 C.3   175  LEU175      0.1693
     13  C         19.8870   -4.5630    0.1650 C.2   175  LEU175      0.2593
     14  O         18.9050   -4.0250    0.7350 O.2   175  LEU175     -0.2718
     15  CB        19.0260   -6.1600   -1.5040 C.3   175  LEU175      0.0284
     16  CG        18.8820   -7.6030   -2.0430 C.3   175  LEU175      0.0019
     17  CD1       17.8580   -7.5590   -3.1890 C.3   175  LEU175      0.0001
     18  CD2       20.3130   -8.1280   -2.4810 C.3   175  LEU175      0.0001
     19  N         20.9450   -3.8770   -0.2600 N.am  176  GLY176     -0.1942
     20  CA        20.9650   -2.4150   -0.1610 C.3   176  GLY176      0.2014
     21  C         20.9590   -1.9670    1.2960 C.2   176  GLY176      0.2639
     22  O         21.5520   -2.6100    2.1430 O.2   176  GLY176     -0.2714
     23  N         20.2580   -0.8760    1.5840 N.am  177  LYS177     -0.1963
     24  CA        20.2140   -0.3480    2.9390 C.3   177  LYS177      0.1728
     25  C         19.0500    0.6080    3.0560 C.2   177  LYS177      0.2616
     26  O         18.4360    1.0120    2.0610 O.2   177  LYS177     -0.2715
     27  CB        21.5360    0.4020    3.2700 C.3   177  LYS177      0.0311
     28  CG        21.7700    1.6200    2.3580 C.3   177  LYS177      0.0038
     29  CD        23.1590    2.2860    2.6210 C.3   177  LYS177      0.0206
     30  CE        23.3120    2.8570    4.0400 C.3   177  LYS177      0.1093
     31  NZ        22.5840    4.1080    4.1390 N.3   177  LYS177     -0.1314
     32  N         18.7450    0.9650    4.2970 N.am  178  THR178     -0.1951
     33  CA        17.8740    2.0750    4.5650 C.3   178  THR178      0.1897
     34  C         18.7440    3.3660    4.6100 C.2   178  THR178      0.2313
     35  O         19.9270    3.3010    4.9560 O.2   178  THR178     -0.2863
     36  CB        17.0600    1.9030    5.8450 C.3   178  THR178      0.1794
     37  OG1       17.9230    1.8400    6.9910 O.3   178  THR178     -0.2208
     38  CG2       16.1800    0.6470    5.7860 C.3   178  THR178      0.0378
     39  N         20.7560    2.2800    7.7340 N.3   187  GLY187     -0.1210
     40  CA        21.6340    1.1440    7.8570 C.3   187  GLY187      0.1940
     41  C         21.2340   -0.0870    7.0530 C.2   187  GLY187      0.2454
     42  O         20.1170   -0.1960    6.5670 O.2   187  GLY187     -0.2732
     43  N         22.1770   -1.0140    6.9030 N.am  188  PRO188     -0.2717
     44  CA        21.9810   -2.2140    6.1010 C.3   188  PRO188      0.1535
     45  C         21.4970   -3.3660    6.9650 C.2   188  PRO188      0.2599
     46  O         21.6390   -3.3240    8.1940 O.2   188  PRO188     -0.2715
     47  CB        23.3970   -2.5220    5.6360 C.3   188  PRO188      0.0310
     48  CG        24.2500   -2.1640    6.8590 C.3   188  PRO188      0.0237
     49  CD        23.5620   -0.9030    7.4050 C.3   188  PRO188      0.0939
     50  N         20.9320   -4.3910    6.3330 N.am  189  GLY189     -0.1955
     51  CA        20.4180   -5.5210    7.1020 C.3   189  GLY189      0.1869
     52  C         21.4680   -6.6050    7.2890 C.2   189  GLY189      0.2309
     53  O         21.2240   -7.5900    7.9900 O.2   189  GLY189     -0.2863
     54  N         20.7400   -3.2880   10.8920 N.3   228  MET228     -0.1230
     55  CA        19.4780   -2.7930   11.4230 C.3   228  MET228      0.1702
     56  C         18.3220   -3.6270   10.8690 C.2   228  MET228      0.2592
     57  O         18.4940   -4.3350    9.8380 O.2   228  MET228     -0.2718
     58  CB        19.3050   -1.2930   11.1150 C.3   228  MET228      0.0401
     59  CG        19.1260   -0.9540    9.6000 C.3   228  MET228      0.0596
     60  SD        17.4420   -1.1830    8.9990 S.3   228  MET228     -0.1393
     61  CE        16.6260    0.1530    9.8620 C.3   228  MET228      0.0692
     62  N         17.1920   -3.5890   11.5890 N.am  229  MET229     -0.1965
     63  CA        15.9030   -4.1380   11.1410 C.3   229  MET229      0.1736
     64  C         14.8450   -3.0900   11.4540 C.2   229  MET229      0.2616
     65  O         14.8800   -2.4270   12.5030 O.2   229  MET229     -0.2715
     66  CB        15.5840   -5.4420   11.8900 C.3   229  MET229      0.0427
     67  CG        16.5460   -6.5770   11.5040 C.3   229  MET229      0.0599
     68  SD        16.1140   -7.2290    9.8830 S.3   229  MET229     -0.1393
     69  CE        17.6650   -8.1300    9.5230 C.3   229  MET229      0.0692
     70  N         13.9130   -2.9220   10.5250 N.am  230  LEU230     -0.1977
     71  CA        12.7280   -2.0870   10.7570 C.3   230  LEU230      0.1596
     72  C         11.8240   -2.8270   11.7470 C.2   230  LEU230      0.2287
     73  O         11.9030   -4.0680   11.8500 O.2   230  LEU230     -0.2864
     74  CB        11.9540   -1.8870    9.4390 C.3   230  LEU230      0.0297
     75  CG        12.7510   -1.2800    8.2860 C.3   230  LEU230      0.0022
     76  CD1       12.0750   -1.6050    6.9200 C.3   230  LEU230      0.0001
     77  CD2       12.8590    0.2510    8.4920 C.3   230  LEU230      0.0001
     78  N         10.2380   -5.6600   10.0040 N.3   233  ASP233     -0.1239
     79  CA        11.1610   -6.8110    9.8260 C.3   233  ASP233      0.1674
     80  C         11.2090   -7.6160   11.1170 C.2   233  ASP233      0.2266
     81  O         11.1270   -8.8480   11.1270 O.2   233  ASP233     -0.2867
     82  CB        12.5920   -6.3190    9.5950 C.3   233  ASP233      0.1410
     83  CG        12.7820   -5.6090    8.2680 C.2   233  ASP233      0.3668
     84  OD1       12.2090   -6.0660    7.2540 O.co2 233  ASP233     -0.2456
     85  OD2       13.5600   -4.6050    8.2700 O.co2 233  ASP233     -0.2456
@<TRIPOS>BOND
     1    17    16    1
     2    18    16    1
     3    16    15    1
     4    15    12    1
     5    19    20    1
     6    19    13   am
     7    12    13    1
     8    12    11    1
     9    20    21    1
    10    13    14    2
    11    21    23   am
    12    21    22    2
    13    23    24    1
    14     1     2    1
    15    26    25    2
    16    28    29    1
    17    28    27    1
    18    29    30    1
    19     8    10   ar
    20     8     6   ar
    21     2     3    1
    22     2     5    1
    23    24    25    1
    24    24    27    1
    25    10     9   ar
    26    25    32   am
    27     3     4    2
    28     6     5    1
    29     6     7   ar
    30    30    31    1
    31     9     7   ar
    32    32    33    1
    33    33    34    1
    34    33    36    1
    35    34    35    2
    36    47    44    1
    37    47    48    1
    38    38    36    1
    39    36    37    1
    40    44    43    1
    41    44    45    1
    42    50    45   am
    43    50    51    1
    44    42    41    2
    45    48    49    1
    46    43    41   am
    47    43    49    1
    48    76    75    1
    49    45    46    2
    50    41    40    1
    51    51    52    1
    52    84    83   ar
    53    52    53    2
    54    39    40    1
    55    83    85   ar
    56    83    82    1
    57    75    77    1
    58    75    74    1
    59    60    59    1
    60    60    61    1
    61    74    71    1
    62    69    68    1
    63    82    79    1
    64    59    58    1
    65    79    78    1
    66    79    80    1
    67    57    56    2
    68    68    67    1
    69    70    71    1
    70    70    64   am
    71    71    72    1
    72    56    55    1
    73    56    62   am
    74    54    55    1
    75    58    55    1
    76    80    81    2
    77    63    64    1
    78    63    62    1
    79    63    66    1
    80    64    65    2
    81    67    66    1
    82    72    73    2
