@<TRIPOS>MOLECULE
tmp/2rc0A01.pdb
 89 84 0 0 0
SMALL
GASTEIGER

@<TRIPOS>ATOM
      1  N         15.1620   -7.6700    1.9770 N.3   173  HIS173     -0.1241
      2  CA        15.7500   -6.7100    2.9060 C.3   173  HIS173      0.1621
      3  C         17.1790   -7.0350    3.3490 C.2   173  HIS173      0.2264
      4  O         17.7780   -6.2870    4.1240 O.2   173  HIS173     -0.2867
      5  CB        14.8000   -6.4640    4.0760 C.3   173  HIS173      0.0745
      6  CG        13.7300   -5.4680    3.7550 C.ar  173  HIS173      0.0817
      7  ND1       12.7160   -5.1570    4.6340 N.ar  173  HIS173     -0.2268
      8  CD2       13.5180   -4.7170    2.6450 C.ar  173  HIS173      0.1154
      9  CE1       11.9380   -4.2330    4.0840 C.ar  173  HIS173      0.1986
     10  NE2       12.4260   -3.9250    2.8880 N.ar  173  HIS173     -0.2212
     11  N         19.2050   -6.7220    0.9860 N.3   175  LEU175     -0.1231
     12  CA        19.8490   -5.9290   -0.0650 C.3   175  LEU175      0.1693
     13  C         19.8670   -4.4420    0.2650 C.2   175  LEU175      0.2593
     14  O         18.8750   -3.9010    0.7610 O.2   175  LEU175     -0.2718
     15  CB        19.0630   -6.1110   -1.3650 C.3   175  LEU175      0.0284
     16  CG        18.9480   -7.5290   -1.9380 C.3   175  LEU175      0.0019
     17  CD1       17.9250   -7.4920   -3.0610 C.3   175  LEU175      0.0001
     18  CD2       20.3000   -8.0430   -2.4050 C.3   175  LEU175      0.0001
     19  N         20.9810   -3.7710   -0.0560 N.am  176  GLY176     -0.1942
     20  CA        21.0130   -2.3090   -0.0570 C.3   176  GLY176      0.2014
     21  C         21.0780   -1.7270    1.3410 C.2   176  GLY176      0.2639
     22  O         21.7380   -2.2820    2.2260 O.2   176  GLY176     -0.2714
     23  N         20.3810   -0.6160    1.5380 N.am  177  LYS177     -0.1963
     24  CA        20.3820    0.0070    2.8580 C.3   177  LYS177      0.1728
     25  C         19.2010    0.9260    3.0090 C.2   177  LYS177      0.2616
     26  O         18.6090    1.3480    2.0230 O.2   177  LYS177     -0.2715
     27  CB        21.7010    0.7520    3.1200 C.3   177  LYS177      0.0311
     28  CG        21.9380    1.9460    2.2320 C.3   177  LYS177      0.0038
     29  CD        23.3240    2.5960    2.4850 C.3   177  LYS177      0.0206
     30  CE        23.4510    3.2090    3.8860 C.3   177  LYS177      0.1093
     31  NZ        22.6010    4.4140    4.0850 N.3   177  LYS177     -0.1314
     32  N         18.8370    1.1980    4.2620 N.am  178  THR178     -0.1951
     33  CA        17.9460    2.3060    4.5340 C.3   178  THR178      0.1897
     34  C         18.7900    3.5930    4.5400 C.2   178  THR178      0.2313
     35  O         19.9620    3.5720    4.9430 O.2   178  THR178     -0.2863
     36  CB        17.1730    2.1490    5.8620 C.3   178  THR178      0.1794
     37  OG1       18.0930    2.0260    6.9500 O.3   178  THR178     -0.2208
     38  CG2       16.2210    0.9470    5.8280 C.3   178  THR178      0.0378
     39  N         20.8480    2.3930    7.7030 N.3   187  GLY187     -0.1225
     40  CA        21.7540    1.2680    7.8330 C.3   187  GLY187      0.1811
     41  C         21.3800    0.0790    6.9640 C.2   187  GLY187      0.2280
     42  O         20.2630    0.0090    6.4490 O.2   187  GLY187     -0.2866
     43  N         21.0400   -4.2360    6.1490 N.3   189  GLY189     -0.1225
     44  CA        20.4660   -5.3900    6.8280 C.3   189  GLY189      0.1811
     45  C         21.4660   -6.5020    7.0870 C.2   189  GLY189      0.2280
     46  O         21.1500   -7.4830    7.7730 O.2   189  GLY189     -0.2866
     47  N         19.1640  -12.2320    5.4570 N.3   200  PHE200     -0.1241
     48  CA        18.1510  -11.4960    6.2590 C.3   200  PHE200      0.1605
     49  C         17.6500  -12.3720    7.4120 C.2   200  PHE200      0.2264
     50  O         17.5260  -11.9100    8.5460 O.2   200  PHE200     -0.2867
     51  CB        17.0050  -11.1070    5.3300 C.3   200  PHE200      0.0534
     52  CG        15.8180  -10.4650    6.0020 C.ar  200  PHE200     -0.0203
     53  CD1       15.8440   -9.1230    6.3680 C.ar  200  PHE200     -0.0042
     54  CD2       14.6360  -11.1990    6.1930 C.ar  200  PHE200     -0.0042
     55  CE1       14.6960   -8.5060    6.9410 C.ar  200  PHE200     -0.0003
     56  CE2       13.4920  -10.5920    6.7550 C.ar  200  PHE200     -0.0003
     57  CZ        13.5360   -9.2540    7.1390 C.ar  200  PHE200     -0.0000
     58  N         20.7340   -3.3620   10.7730 N.3   228  MET228     -0.1230
     59  CA        19.4670   -2.8680   11.2880 C.3   228  MET228      0.1702
     60  C         18.3060   -3.6810   10.7530 C.2   228  MET228      0.2592
     61  O         18.4110   -4.3240    9.7080 O.2   228  MET228     -0.2718
     62  CB        19.2760   -1.3720   10.9790 C.3   228  MET228      0.0401
     63  CG        19.1020   -1.0300    9.4830 C.3   228  MET228      0.0596
     64  SD        17.4130   -1.2360    8.8510 S.3   228  MET228     -0.1393
     65  CE        16.5450    0.0930    9.6870 C.3   228  MET228      0.0692
     66  N         17.2210   -3.6490   11.5220 N.am  229  MET229     -0.1965
     67  CA        15.9200   -4.1780   11.1130 C.3   229  MET229      0.1736
     68  C         14.8550   -3.1120   11.3700 C.2   229  MET229      0.2616
     69  O         14.8700   -2.4490   12.4210 O.2   229  MET229     -0.2715
     70  CB        15.5910   -5.4450   11.9160 C.3   229  MET229      0.0427
     71  CG        16.4810   -6.6350   11.5810 C.3   229  MET229      0.0599
     72  SD        16.0950   -7.2680    9.9310 S.3   229  MET229     -0.1393
     73  CE        17.6230   -8.1730    9.5780 C.3   229  MET229      0.0692
     74  N         13.9380   -2.9260   10.4220 N.am  230  LEU230     -0.1977
     75  CA        12.7540   -2.1010   10.6610 C.3   230  LEU230      0.1596
     76  C         11.8450   -2.8010   11.6850 C.2   230  LEU230      0.2287
     77  O         11.8850   -4.0300   11.8200 O.2   230  LEU230     -0.2864
     78  CB        11.9580   -1.9390    9.3660 C.3   230  LEU230      0.0297
     79  CG        12.7390   -1.3090    8.2140 C.3   230  LEU230      0.0022
     80  CD1       11.9820   -1.5820    6.9210 C.3   230  LEU230      0.0001
     81  CD2       12.9150    0.2040    8.4270 C.3   230  LEU230      0.0001
     82  N         10.2450   -5.5870    9.9720 N.3   233  ASP233     -0.1239
     83  CA        11.1470   -6.7410    9.8010 C.3   233  ASP233      0.1674
     84  C         11.1990   -7.5610   11.0940 C.2   233  ASP233      0.2266
     85  O         11.0820   -8.7900   11.0870 O.2   233  ASP233     -0.2867
     86  CB        12.5780   -6.2800    9.5110 C.3   233  ASP233      0.1410
     87  CG        12.7420   -5.6060    8.1580 C.2   233  ASP233      0.3668
     88  OD1       12.0630   -6.0070    7.1840 O.co2 233  ASP233     -0.2456
     89  OD2       13.5950   -4.6760    8.0910 O.co2 233  ASP233     -0.2456
@<TRIPOS>BOND
     1    17    16    1
     2    18    16    1
     3    16    15    1
     4    15    12    1
     5    12    13    1
     6    12    11    1
     7    20    19    1
     8    20    21    1
     9    19    13   am
    10    13    14    2
    11    21    23   am
    12    21    22    2
    13    23    24    1
    14     1     2    1
    15    26    25    2
    16    28    29    1
    17    28    27    1
    18    29    30    1
    19     8    10   ar
    20     8     6   ar
    21    24    25    1
    22    24    27    1
    23    10     9   ar
    24     2     3    1
    25     2     5    1
    26    25    32   am
    27     3     4    2
    28     6     5    1
    29     6     7   ar
    30    30    31    1
    31     9     7   ar
    32    32    33    1
    33    33    34    1
    34    33    36    1
    35    34    35    2
    36    51    52    1
    37    51    48    1
    38    47    48    1
    39    38    36    1
    40    36    37    1
    41    52    54   ar
    42    52    53   ar
    43    43    44    1
    44    54    56   ar
    45    48    49    1
    46    53    55   ar
    47    42    41    2
    48    56    57   ar
    49    44    45    1
    50    80    79    1
    51    55    57   ar
    52    41    40    1
    53    45    46    2
    54    88    87   ar
    55    49    50    2
    56    39    40    1
    57    89    87   ar
    58    87    86    1
    59    79    81    1
    60    79    78    1
    61    64    63    1
    62    64    65    1
    63    78    75    1
    64    63    62    1
    65    86    83    1
    66    73    72    1
    67    61    60    2
    68    83    82    1
    69    83    84    1
    70    72    71    1
    71    74    75    1
    72    74    68   am
    73    75    76    1
    74    60    59    1
    75    60    66   am
    76    58    59    1
    77    62    59    1
    78    85    84    2
    79    67    68    1
    80    67    66    1
    81    67    70    1
    82    68    69    2
    83    71    70    1
    84    76    77    2
