@<TRIPOS>MOLECULE
tmp/2rc1A01.pdb
 92 89 0 0 0
SMALL
GASTEIGER

@<TRIPOS>ATOM
      1  N        -15.8200   -6.7270   -0.1700 N.3   173  HIS173     -0.1241
      2  CA       -16.3870   -5.6050   -0.8910 C.3   173  HIS173      0.1621
      3  C        -17.8050   -5.9150   -1.3860 C.2   173  HIS173      0.2264
      4  O        -18.4220   -5.0860   -2.0530 O.2   173  HIS173     -0.2867
      5  CB       -15.4910   -5.1900   -2.0220 C.3   173  HIS173      0.0745
      6  CG       -14.4300   -4.2330   -1.6030 C.ar  173  HIS173      0.0817
      7  ND1      -13.3890   -3.8630   -2.4280 N.ar  173  HIS173     -0.2268
      8  CD2      -14.2540   -3.5520   -0.4470 C.ar  173  HIS173      0.1154
      9  CE1      -12.6290   -2.9840   -1.8080 C.ar  173  HIS173      0.1986
     10  NE2      -13.1320   -2.7720   -0.6050 N.ar  173  HIS173     -0.2212
     11  N        -19.8410   -6.0480    0.8660 N.3   175  LEU175     -0.1231
     12  CA       -20.4820   -5.4030    2.0230 C.3   175  LEU175      0.1693
     13  C        -20.4810   -3.8850    1.8710 C.2   175  LEU175      0.2593
     14  O        -19.5310   -3.3220    1.2960 O.2   175  LEU175     -0.2718
     15  CB       -19.7060   -5.7560    3.2780 C.3   175  LEU175      0.0284
     16  CG       -19.7060   -7.2280    3.6770 C.3   175  LEU175      0.0019
     17  CD1      -18.7140   -7.5120    4.8430 C.3   175  LEU175      0.0001
     18  CD2      -21.1330   -7.6440    4.0810 C.3   175  LEU175      0.0001
     19  N        -21.5720   -3.2520    2.3170 N.am  176  GLY176     -0.1942
     20  CA       -21.7120   -1.8010    2.3790 C.3   176  GLY176      0.2014
     21  C        -21.5690   -1.0770    1.0490 C.2   176  GLY176      0.2639
     22  O        -21.9530   -1.6230   -0.0300 O.2   176  GLY176     -0.2714
     23  N        -21.0290    0.1480    1.1070 N.am  177  LYS177     -0.1963
     24  CA       -20.9230    0.9600   -0.1220 C.3   177  LYS177      0.1728
     25  C        -19.7500    1.9380   -0.0830 C.2   177  LYS177      0.2616
     26  O        -19.2330    2.2660    1.0030 O.2   177  LYS177     -0.2715
     27  CB       -22.2200    1.7270   -0.3540 C.3   177  LYS177      0.0311
     28  CG       -22.5830    2.7370    0.7820 C.3   177  LYS177      0.0038
     29  CD       -23.9860    3.3570    0.6550 C.3   177  LYS177      0.0206
     30  CE       -24.2420    4.0170   -0.7430 C.3   177  LYS177      0.1093
     31  NZ       -23.4430    5.2440   -0.7800 N.3   177  LYS177     -0.1314
     32  N        -19.3260    2.4190   -1.2640 N.am  178  THR178     -0.1951
     33  CA       -18.4090    3.5420   -1.3190 C.3   178  THR178      0.1897
     34  C        -19.3060    4.7740   -1.0720 C.2   178  THR178      0.2313
     35  O        -20.5280    4.7130   -1.3190 O.2   178  THR178     -0.2863
     36  CB       -17.6550    3.6150   -2.6790 C.3   178  THR178      0.1794
     37  OG1      -18.5860    3.8290   -3.7570 O.3   178  THR178     -0.2208
     38  CG2      -16.9020    2.3560   -2.9490 C.3   178  THR178      0.0378
     39  N        -23.2220    1.0830   -4.3610 N.3   188  PRO188     -0.2102
     40  CA       -22.9820   -0.2650   -3.8020 C.3   188  PRO188      0.1504
     41  C        -22.2920   -1.2630   -4.7640 C.2   188  PRO188      0.2576
     42  O        -22.1430   -1.0050   -5.9700 O.2   188  PRO188     -0.2718
     43  CB       -24.4050   -0.7620   -3.4550 C.3   188  PRO188      0.0282
     44  CG       -25.3100   -0.0480   -4.4260 C.3   188  PRO188      0.0208
     45  CD       -24.6490    1.3000   -4.7200 C.3   188  PRO188      0.0893
     46  N        -21.9000   -2.4140   -4.2190 N.am  189  GLY189     -0.1957
     47  CA       -21.2730   -3.4600   -5.0140 C.3   189  GLY189      0.1869
     48  C        -22.2320   -4.5420   -5.4250 C.2   189  GLY189      0.2309
     49  O        -21.9460   -5.2480   -6.4060 O.2   189  GLY189     -0.2863
     50  N        -19.8430  -10.6550   -4.4230 N.3   200  PHE200     -0.1241
     51  CA       -18.8250   -9.8900   -5.1120 C.3   200  PHE200      0.1605
     52  C        -18.1910  -10.6390   -6.3030 C.2   200  PHE200      0.2264
     53  O        -17.9240  -10.0080   -7.3060 O.2   200  PHE200     -0.2867
     54  CB       -17.7940   -9.4490   -4.0870 C.3   200  PHE200      0.0534
     55  CG       -16.5700   -8.8110   -4.6420 C.ar  200  PHE200     -0.0203
     56  CD1      -16.5160   -7.4410   -4.8410 C.ar  200  PHE200     -0.0042
     57  CD2      -15.4220   -9.5660   -4.8690 C.ar  200  PHE200     -0.0042
     58  CE1      -15.3470   -6.8520   -5.2380 C.ar  200  PHE200     -0.0003
     59  CE2      -14.2340   -8.9480   -5.2860 C.ar  200  PHE200     -0.0003
     60  CZ       -14.2070   -7.5960   -5.4660 C.ar  200  PHE200     -0.0000
     61  N        -21.4390   -0.8740   -8.5300 N.3   228  MET228     -0.1230
     62  CA       -20.0870   -0.4390   -8.9270 C.3   228  MET228      0.1702
     63  C        -18.8920   -1.3510   -8.4510 C.2   228  MET228      0.2592
     64  O        -19.0500   -2.3150   -7.6950 O.2   228  MET228     -0.2718
     65  CB       -19.8200    1.0090   -8.5040 C.3   228  MET228      0.0401
     66  CG       -19.8270    1.2720   -6.9730 C.3   228  MET228      0.0596
     67  SD       -18.2420    0.8980   -6.0870 S.3   228  MET228     -0.1393
     68  CE       -17.0790    2.1470   -6.6900 C.3   228  MET228      0.0692
     69  N        -17.6990   -1.0440   -8.9670 N.am  229  MET229     -0.1965
     70  CA       -16.4920   -1.7790   -8.7000 C.3   229  MET229      0.1736
     71  C        -15.4110   -0.7380   -8.8520 C.2   229  MET229      0.2616
     72  O        -15.4420    0.0170   -9.8070 O.2   229  MET229     -0.2715
     73  CB       -16.2520   -2.8430   -9.7620 C.3   229  MET229      0.0427
     74  CG       -17.0110   -4.1260   -9.6390 C.3   229  MET229      0.0599
     75  SD       -16.7050   -5.0600   -8.1110 S.3   229  MET229     -0.1393
     76  CE       -18.2160   -6.1820   -8.0140 C.3   229  MET229      0.0692
     77  N        -14.5040   -0.6800   -7.8730 N.am  230  LEU230     -0.1977
     78  CA       -13.2620    0.0740   -7.9400 C.3   230  LEU230      0.1596
     79  C        -12.3490   -0.5050   -9.0040 C.2   230  LEU230      0.2287
     80  O        -12.4190   -1.7450   -9.2870 O.2   230  LEU230     -0.2864
     81  CB       -12.5430   -0.0690   -6.6160 C.3   230  LEU230      0.0297
     82  CG       -13.2490    0.4280   -5.3650 C.3   230  LEU230      0.0022
     83  CD1      -12.3680    0.0090   -4.1950 C.3   230  LEU230      0.0001
     84  CD2      -13.4480    1.9910   -5.4890 C.3   230  LEU230      0.0001
     85  N        -10.9160   -3.5130   -7.5930 N.3   233  ASP233     -0.1239
     86  CA       -11.8540   -4.6620   -7.5520 C.3   233  ASP233      0.1674
     87  C        -11.8520   -5.2630   -8.9160 C.2   233  ASP233      0.2266
     88  O        -11.8070   -6.4930   -9.1340 O.2   233  ASP233     -0.2867
     89  CB       -13.2800   -4.1840   -7.3130 C.3   233  ASP233      0.1410
     90  CG       -13.4940   -3.5710   -5.9330 C.2   233  ASP233      0.3668
     91  OD1      -12.7290   -3.8710   -4.9910 O.co2 233  ASP233     -0.2456
     92  OD2      -14.4530   -2.7870   -5.7780 O.co2 233  ASP233     -0.2456
@<TRIPOS>BOND
     1    72    71    2
     2    73    74    1
     3    73    70    1
     4    74    75    1
     5    80    79    2
     6    88    87    2
     7    79    78    1
     8    69    70    1
     9    69    63   am
    10    62    61    1
    11    62    65    1
    12    62    63    1
    13    87    86    1
    14    71    70    1
    15    71    77   am
    16    65    66    1
    17    63    64    2
    18    75    76    1
    19    78    77    1
    20    78    81    1
    21    85    86    1
    22    86    89    1
    23    89    90    1
    24    53    52    2
    25    66    67    1
    26    68    67    1
    27    81    82    1
    28    49    48    2
    29    52    51    1
    30    42    41    2
    31    90    92   ar
    32    90    91   ar
    33    84    82    1
    34    60    59   ar
    35    60    58   ar
    36    48    47    1
    37    82    83    1
    38    59    57   ar
    39    58    56   ar
    40    51    50    1
    41    51    54    1
    42    47    46    1
    43    57    55   ar
    44    56    55   ar
    45    41    46   am
    46    41    40    1
    47    45    44    1
    48    45    39    1
    49    55    54    1
    50    44    43    1
    51    39    40    1
    52    40    43    1
    53    37    36    1
    54    38    36    1
    55    36    33    1
    56     7     9   ar
    57     7     6   ar
    58     4     3    2
    59     5     6    1
    60     5     2    1
    61     9    10   ar
    62     6     8   ar
    63     3     2    1
    64    33    32    1
    65    33    34    1
    66    35    34    2
    67    32    25   am
    68     2     1    1
    69    31    30    1
    70    30    29    1
    71    10     8   ar
    72    27    24    1
    73    27    28    1
    74    24    25    1
    75    24    23    1
    76    25    26    2
    77    22    21    2
    78    29    28    1
    79    11    12    1
    80    21    23   am
    81    21    20    1
    82    14    13    2
    83    13    12    1
    84    13    19   am
    85    12    15    1
    86    19    20    1
    87    15    16    1
    88    16    18    1
    89    16    17    1
