@<TRIPOS>MOLECULE
tmp/2rc2A01.pdb
 98 95 0 0 0
SMALL
GASTEIGER

@<TRIPOS>ATOM
      1  N         15.0640   -7.6320    1.8460 N.3   173  HIS173     -0.1226
      2  CA        15.6980   -6.7150    2.7880 C.3   173  HIS173      0.1752
      3  C         17.0890   -7.1570    3.2450 C.2   173  HIS173      0.2596
      4  O         17.6890   -6.4870    4.0900 O.2   173  HIS173     -0.2718
      5  CB        14.7650   -6.4210    3.9650 C.3   173  HIS173      0.0759
      6  CG        13.7290   -5.3920    3.6450 C.ar  173  HIS173      0.0818
      7  ND1       12.7640   -4.9960    4.5480 N.ar  173  HIS173     -0.2268
      8  CD2       13.5110   -4.6690    2.5180 C.ar  173  HIS173      0.1154
      9  CE1       12.0080   -4.0640    3.9920 C.ar  173  HIS173      0.1986
     10  NE2       12.4520   -3.8370    2.7660 N.ar  173  HIS173     -0.2212
     11  N         17.6050   -8.2510    2.6770 N.am  174  ALA174     -0.1966
     12  CA        19.0620   -8.5000    2.7050 C.3   174  ALA174      0.1728
     13  C         19.8210   -7.4370    1.9060 C.2   174  ALA174      0.2616
     14  O         21.0080   -7.1770    2.1700 O.2   174  ALA174     -0.2715
     15  CB        19.3880   -9.8790    2.1520 C.3   174  ALA174      0.0334
     16  N         19.1430   -6.8370    0.9260 N.am  175  LEU175     -0.1963
     17  CA        19.8220   -6.0150   -0.0810 C.3   175  LEU175      0.1728
     18  C         19.9060   -4.5460    0.2980 C.2   175  LEU175      0.2617
     19  O         18.9930   -4.0000    0.9130 O.2   175  LEU175     -0.2715
     20  CB        19.0590   -6.1040   -1.4070 C.3   175  LEU175      0.0311
     21  CG        18.8820   -7.5010   -2.0160 C.3   175  LEU175      0.0022
     22  CD1       17.9030   -7.4000   -3.1610 C.3   175  LEU175      0.0001
     23  CD2       20.2140   -8.0520   -2.4950 C.3   175  LEU175      0.0001
     24  N         20.9790   -3.8850   -0.1350 N.am  176  GLY176     -0.1940
     25  CA        21.0450   -2.4250   -0.0530 C.3   176  GLY176      0.2014
     26  C         20.9820   -1.8980    1.3750 C.2   176  GLY176      0.2639
     27  O         21.5530   -2.4900    2.2940 O.2   176  GLY176     -0.2714
     28  N         20.2870   -0.7800    1.5550 N.am  177  LYS177     -0.1963
     29  CA        20.2480   -0.1370    2.8670 C.3   177  LYS177      0.1728
     30  C         19.0860    0.8230    2.9610 C.2   177  LYS177      0.2616
     31  O         18.4330    1.1370    1.9660 O.2   177  LYS177     -0.2715
     32  CB        21.5720    0.6000    3.1460 C.3   177  LYS177      0.0311
     33  CG        21.7980    1.8090    2.2540 C.3   177  LYS177      0.0038
     34  CD        23.1830    2.4350    2.4750 C.3   177  LYS177      0.0206
     35  CE        23.3030    3.1530    3.8250 C.3   177  LYS177      0.1093
     36  NZ        22.5190    4.4070    3.8870 N.3   177  LYS177     -0.1314
     37  N         18.8350    1.2760    4.1850 N.am  178  THR178     -0.1951
     38  CA        17.9210    2.3690    4.4220 C.3   178  THR178      0.1897
     39  C         18.7420    3.6630    4.4260 C.2   178  THR178      0.2313
     40  O         19.9230    3.6540    4.8080 O.2   178  THR178     -0.2863
     41  CB        17.1320    2.1880    5.7440 C.3   178  THR178      0.1794
     42  OG1       18.0320    2.2070    6.8570 O.3   178  THR178     -0.2208
     43  CG2       16.3450    0.8770    5.7500 C.3   178  THR178      0.0378
     44  N         22.2610   -0.5600    6.8410 N.3   188  PRO188     -0.2116
     45  CA        23.6430   -0.5840    7.3100 C.3   188  PRO188      0.1372
     46  C         24.5380    0.3620    6.5180 C.2   188  PRO188      0.2244
     47  O         24.1590    0.8270    5.4400 O.2   188  PRO188     -0.2868
     48  CB        24.0720   -2.0160    7.0120 C.3   188  PRO188      0.0268
     49  CG        23.2030   -2.4190    5.8440 C.3   188  PRO188      0.0207
     50  CD        21.8930   -1.8000    6.1310 C.3   188  PRO188      0.0892
     51  N         26.4290   -3.2540    4.3960 N.3   192  ALA192     -0.1245
     52  CA        25.4900   -3.3530    3.2620 C.3   192  ALA192      0.1562
     53  C         25.9230   -4.4150    2.2530 C.2   192  ALA192      0.2260
     54  O         27.1170   -4.7020    2.1280 O.2   192  ALA192     -0.2867
     55  CB        25.3270   -2.0060    2.5740 C.3   192  ALA192      0.0290
     56  N         18.9960  -12.1670    5.3640 N.3   200  PHE200     -0.1241
     57  CA        17.9920  -11.4240    6.1640 C.3   200  PHE200      0.1605
     58  C         17.5200  -12.2950    7.3260 C.2   200  PHE200      0.2264
     59  O         17.4230  -11.8240    8.4680 O.2   200  PHE200     -0.2867
     60  CB        16.8180  -11.0600    5.2500 C.3   200  PHE200      0.0534
     61  CG        15.6430  -10.4120    5.9400 C.ar  200  PHE200     -0.0203
     62  CD1       15.6880   -9.0790    6.3330 C.ar  200  PHE200     -0.0042
     63  CD2       14.4530  -11.1270    6.1170 C.ar  200  PHE200     -0.0042
     64  CE1       14.5660   -8.4690    6.9230 C.ar  200  PHE200     -0.0003
     65  CE2       13.3320  -10.5310    6.6970 C.ar  200  PHE200     -0.0003
     66  CZ        13.3910   -9.2090    7.1050 C.ar  200  PHE200     -0.0000
     67  N         20.8920   -3.4540   10.7130 N.3   228  MET228     -0.1230
     68  CA        19.6550   -2.8800   11.2220 C.3   228  MET228      0.1702
     69  C         18.4710   -3.6670   10.6860 C.2   228  MET228      0.2592
     70  O         18.5940   -4.3900    9.6950 O.2   228  MET228     -0.2718
     71  CB        19.5280   -1.3890   10.8870 C.3   228  MET228      0.0401
     72  CG        19.3980   -1.0580    9.4010 C.3   228  MET228      0.0596
     73  SD        17.7450   -1.2710    8.6920 S.3   228  MET228     -0.1393
     74  CE        16.8250    0.0110    9.5230 C.3   228  MET228      0.0692
     75  N         17.3490   -3.5450   11.3900 N.am  229  MET229     -0.1965
     76  CA        16.0480   -4.0600   10.9450 C.3   229  MET229      0.1736
     77  C         14.9950   -2.9930   11.2060 C.2   229  MET229      0.2616
     78  O         15.0290   -2.3060   12.2360 O.2   229  MET229     -0.2715
     79  CB        15.6640   -5.3230   11.7140 C.3   229  MET229      0.0427
     80  CG        16.5250   -6.5270   11.4300 C.3   229  MET229      0.0599
     81  SD        16.1630   -7.2200    9.7950 S.3   229  MET229     -0.1393
     82  CE        17.4370   -8.4950    9.7260 C.3   229  MET229      0.0692
     83  N         14.0500   -2.8540   10.2820 N.am  230  LEU230     -0.1977
     84  CA        12.8820   -2.0130   10.5240 C.3   230  LEU230      0.1596
     85  C         11.9670   -2.6920   11.5430 C.2   230  LEU230      0.2287
     86  O         11.9950   -3.9130   11.6720 O.2   230  LEU230     -0.2864
     87  CB        12.1060   -1.8250    9.2200 C.3   230  LEU230      0.0297
     88  CG        12.8760   -1.1650    8.0780 C.3   230  LEU230      0.0022
     89  CD1       12.1250   -1.4110    6.7690 C.3   230  LEU230      0.0001
     90  CD2       13.0640    0.3250    8.3140 C.3   230  LEU230      0.0001
     91  N         10.3020   -5.4620    9.8500 N.3   233  ASP233     -0.1239
     92  CA        11.2050   -6.6170    9.6920 C.3   233  ASP233      0.1674
     93  C         11.2480   -7.4420   10.9740 C.2   233  ASP233      0.2266
     94  O         11.1140   -8.6750   10.9570 O.2   233  ASP233     -0.2867
     95  CB        12.6420   -6.1620    9.3950 C.3   233  ASP233      0.1410
     96  CG        12.7980   -5.4670    8.0440 C.2   233  ASP233      0.3668
     97  OD1       12.1210   -5.8630    7.0630 O.co2 233  ASP233     -0.2456
     98  OD2       13.6400   -4.5260    7.9790 O.co2 233  ASP233     -0.2456
@<TRIPOS>BOND
     1    22    21    1
     2    23    21    1
     3    21    20    1
     4    20    17    1
     5    24    25    1
     6    24    18   am
     7    17    18    1
     8    17    16    1
     9    25    26    1
    10    18    19    2
    11    16    13   am
    12    26    28   am
    13    26    27    2
    14    28    29    1
    15     1     2    1
    16    13    14    2
    17    13    12    1
    18    31    30    2
    19    54    53    2
    20    15    12    1
    21    53    52    1
    22    33    34    1
    23    33    32    1
    24    34    35    1
    25     8    10   ar
    26     8     6   ar
    27    55    52    1
    28    11    12    1
    29    11     3   am
    30    10     9   ar
    31     2     3    1
    32     2     5    1
    33    29    30    1
    34    29    32    1
    35    30    37   am
    36     3     4    2
    37    52    51    1
    38     6     5    1
    39     6     7   ar
    40    35    36    1
    41     9     7   ar
    42    37    38    1
    43    38    39    1
    44    38    41    1
    45    39    40    2
    46    60    61    1
    47    60    57    1
    48    56    57    1
    49    47    46    2
    50    41    43    1
    51    41    42    1
    52    49    50    1
    53    49    48    1
    54    61    63   ar
    55    61    62   ar
    56    63    65   ar
    57    50    44    1
    58    57    58    1
    59    62    64   ar
    60    46    45    1
    61    65    66   ar
    62    89    88    1
    63    44    45    1
    64    64    66   ar
    65    48    45    1
    66    97    96   ar
    67    58    59    2
    68    98    96   ar
    69    96    95    1
    70    88    90    1
    71    88    87    1
    72    73    72    1
    73    73    74    1
    74    87    84    1
    75    95    92    1
    76    72    71    1
    77    92    91    1
    78    92    93    1
    79    70    69    2
    80    82    81    1
    81    81    80    1
    82    83    84    1
    83    83    77   am
    84    84    85    1
    85    69    68    1
    86    69    75   am
    87    67    68    1
    88    71    68    1
    89    76    77    1
    90    76    75    1
    91    76    79    1
    92    94    93    2
    93    77    78    2
    94    80    79    1
    95    85    86    2
