@<TRIPOS>MOLECULE
tmp/2rc3C00.pdb
 143 135 0 0 0
SMALL
GASTEIGER

@<TRIPOS>ATOM
      1  N         59.4450   45.9770   27.4590 N.3    12  LYS12      -0.1245
      2  CA        59.6380   47.4140   27.5680 C.3    12  LYS12       0.1561
      3  C         61.0870   47.8430   27.3280 C.2    12  LYS12       0.2260
      4  O         61.3470   48.9770   26.9040 O.2    12  LYS12      -0.2867
      5  CB        59.2030   47.8450   28.9730 C.3    12  LYS12       0.0271
      6  CG        59.1250   49.3230   29.1830 C.3    12  LYS12       0.0035
      7  CD        59.8540   49.6920   30.4440 C.3    12  LYS12       0.0206
      8  CE        60.8500   50.7440   30.0970 C.3    12  LYS12       0.1093
      9  NZ        61.1960   51.5640   31.2480 N.3    12  LYS12      -0.1314
     10  N         66.4010   50.0620   29.5090 N.3    15  THR15      -0.1203
     11  CA        67.0080   51.4000   29.6110 C.3    15  THR15       0.1994
     12  C         66.6050   52.0470   30.9200 C.2    15  THR15       0.2618
     13  O         65.4500   51.9440   31.3450 O.2    15  THR15      -0.2717
     14  CB        66.5830   52.3720   28.4910 C.3    15  THR15       0.1784
     15  OG1       65.8510   51.6830   27.4700 O.3    15  THR15      -0.2211
     16  CG2       67.8150   53.0670   27.9010 C.3    15  THR15       0.0376
     17  N         67.5730   52.6980   31.5550 N.am   16  VAL16      -0.1965
     18  CA        67.3390   53.4460   32.7800 C.3    16  VAL16       0.1727
     19  C         67.8670   54.8420   32.5310 C.2    16  VAL16       0.2616
     20  O         69.0000   55.0070   32.0590 O.2    16  VAL16      -0.2715
     21  CB        68.0890   52.8180   33.9790 C.3    16  VAL16       0.0290
     22  CG1       68.0630   53.7430   35.2010 C.3    16  VAL16       0.0023
     23  CG2       67.5000   51.4570   34.3260 C.3    16  VAL16       0.0023
     24  N         67.0410   55.8420   32.8190 N.am   17  VAL17      -0.1977
     25  CA        67.4560   57.2270   32.7310 C.3    17  VAL17       0.1596
     26  C         67.6590   57.7550   34.1390 C.2    17  VAL17       0.2287
     27  O         66.7560   57.6680   34.9900 O.2    17  VAL17      -0.2864
     28  CB        66.4160   58.0820   31.9800 C.3    17  VAL17       0.0276
     29  CG1       66.9600   59.4740   31.6960 C.3    17  VAL17       0.0022
     30  CG2       66.0040   57.4010   30.6700 C.3    17  VAL17       0.0022
     31  N         60.7140   62.5060   27.3560 N.3    36  ASN36      -0.1225
     32  CA        59.2830   62.2680   27.5120 C.3    36  ASN36       0.1785
     33  C         59.0150   61.2300   28.6020 C.2    36  ASN36       0.2597
     34  O         58.3700   60.1940   28.3730 O.2    36  ASN36      -0.2718
     35  CB        58.6300   61.8700   26.1840 C.3    36  ASN36       0.1169
     36  CG        57.1220   61.9380   26.2420 C.2    36  ASN36       0.2627
     37  OD1       56.5500   62.4800   27.1920 O.2    36  ASN36      -0.2716
     38  ND2       56.4630   61.3800   25.2300 N.am   36  ASN36      -0.0877
     39  N         59.5440   61.5200   29.7860 N.am   37  ILE37      -0.1966
     40  CA        59.3640   60.6620   30.9580 C.3    37  ILE37       0.1727
     41  C         58.9690   61.4680   32.1820 C.2    37  ILE37       0.2617
     42  O         58.9820   62.7130   32.1490 O.2    37  ILE37      -0.2715
     43  CB        60.6200   59.7980   31.2600 C.3    37  ILE37       0.0290
     44  CG1       61.8470   60.6890   31.4910 C.3    37  ILE37       0.0022
     45  CG2       60.8480   58.7590   30.1280 C.3    37  ILE37       0.0023
     46  CD1       63.1430   59.9180   31.7270 C.3    37  ILE37       0.0001
     47  N         58.6110   60.7460   33.2430 N.am   38  GLY38      -0.1940
     48  CA        58.1310   61.3560   34.4870 C.3    38  GLY38       0.2014
     49  C         58.9510   61.0660   35.7310 C.2    38  GLY38       0.2638
     50  O         58.5810   61.4860   36.8290 O.2    38  GLY38      -0.2714
     51  N         60.0760   60.3720   35.5630 N.am   39  ALA39      -0.1977
     52  CA        60.9590   60.0790   36.6910 C.3    39  ALA39       0.1597
     53  C         62.4130   59.9930   36.2370 C.2    39  ALA39       0.2287
     54  O         62.7020   59.6660   35.0790 O.2    39  ALA39      -0.2864
     55  CB        60.5410   58.7810   37.3780 C.3    39  ALA39       0.0319
     56  N         65.9360   58.1410   38.0020 N.3    41  LEU41      -0.1245
     57  CA        66.6270   57.4460   39.0810 C.3    41  LEU41       0.1561
     58  C         67.7870   58.3000   39.5370 C.2    41  LEU41       0.2260
     59  O         68.5520   58.7700   38.7040 O.2    41  LEU41      -0.2867
     60  CB        67.1520   56.0980   38.5930 C.3    41  LEU41       0.0270
     61  CG        66.1130   55.0500   38.1990 C.3    41  LEU41       0.0019
     62  CD1       65.0580   54.8900   39.3020 C.3    41  LEU41       0.0001
     63  CD2       65.4690   55.3970   36.8890 C.3    41  LEU41       0.0001
     64  N         57.8100   63.6400   38.6910 N.3    54  GLU54      -0.1245
     65  CA        56.9680   64.8090   38.4420 C.3    54  GLU54       0.1567
     66  C         56.1780   65.2280   39.6810 C.2    54  GLU54       0.2260
     67  O         55.9050   66.4310   39.8590 O.2    54  GLU54      -0.2867
     68  CB        56.0030   64.5500   37.2870 C.3    54  GLU54       0.0388
     69  CG        56.7140   64.5190   35.9520 C.3    54  GLU54       0.1160
     70  CD        55.7660   64.1950   34.8010 C.2    54  GLU54       0.3649
     71  OE1       55.1520   63.1040   34.7920 O.co2  54  GLU54      -0.2457
     72  OE2       55.6410   65.0500   33.9000 O.co2  54  GLU54      -0.2457
     73  N         53.8500   56.0860   40.8480 N.3   103  ARG103     -0.1231
     74  CA        53.6970   55.7470   39.4630 C.3   103  ARG103      0.1694
     75  C         54.8750   54.9560   38.8390 C.2   103  ARG103      0.2592
     76  O         54.7640   54.4390   37.8100 O.2   103  ARG103     -0.2718
     77  CB        53.4520   56.9900   38.6140 C.3   103  ARG103      0.0321
     78  CG        52.1840   57.6610   38.8900 C.3   103  ARG103      0.0489
     79  CD        52.1770   58.9880   38.1570 C.3   103  ARG103      0.2205
     80  NE        50.9880   59.7230   38.2470 N.pl3 103  ARG103     -0.0865
     81  CZ        50.8590   61.0080   38.4570 C.cat 103  ARG103      0.5346
     82  NH1       49.6450   61.4440   38.4240 N.pl3 103  ARG103      0.1354
     83  NH2       51.8850   61.8260   38.7380 N.pl3 103  ARG103      0.1354
     84  N         55.9860   54.9210   39.5590 N.am  104  HIS104     -0.1976
     85  CA        57.1950   54.2810   39.0480 C.3   104  HIS104      0.1656
     86  C         57.7700   53.3030   40.0400 C.2   104  HIS104      0.2291
     87  O         57.7710   53.5780   41.2490 O.2   104  HIS104     -0.2864
     88  CB        58.2750   55.3250   38.7460 C.3   104  HIS104      0.0771
     89  CG        57.8150   56.4210   37.8320 C.ar  104  HIS104      0.0820
     90  ND1       57.1850   57.5590   38.2920 N.ar  104  HIS104     -0.2267
     91  CD2       57.8670   56.5400   36.4820 C.ar  104  HIS104      0.1154
     92  CE1       56.8820   58.3370   37.2690 C.ar  104  HIS104      0.1986
     93  NE2       57.2910   57.7450   36.1590 N.ar  104  HIS104     -0.2212
     94  N         63.2250   50.0120   34.8660 N.3   116  LEU116     -0.1245
     95  CA        62.1730   50.7810   35.5390 C.3   116  LEU116      0.1561
     96  C         60.8390   50.4360   34.8920 C.2   116  LEU116      0.2260
     97  O         60.7470   50.3770   33.6690 O.2   116  LEU116     -0.2867
     98  CB        62.4550   52.2970   35.4760 C.3   116  LEU116      0.0270
     99  CG        61.4030   53.1310   36.2400 C.3   116  LEU116      0.0019
    100  CD1       62.0150   54.2870   37.0100 C.3   116  LEU116      0.0001
    101  CD2       60.2470   53.5980   35.3370 C.3   116  LEU116      0.0001
    102  N         56.6270   51.5910   34.9120 N.3   118  SER118     -0.1202
    103  CA        55.6990   52.6380   35.3270 C.3   118  SER118      0.2020
    104  C         54.2500   52.1660   35.2100 C.2   118  SER118      0.2619
    105  O         53.9520   51.1510   34.5540 O.2   118  SER118     -0.2717
    106  CB        55.8890   53.8970   34.4710 C.3   118  SER118      0.2103
    107  OG        55.3910   53.7190   33.1430 O.3   118  SER118     -0.2182
    108  N         53.3470   52.9510   35.7880 N.am  119  ILE119     -0.1965
    109  CA        51.9180   52.6640   35.6860 C.3   119  ILE119      0.1727
    110  C         51.4880   52.5150   34.2200 C.2   119  ILE119      0.2617
    111  O         50.7130   51.6280   33.9080 O.2   119  ILE119     -0.2715
    112  CB        51.0620   53.7300   36.4240 C.3   119  ILE119      0.0290
    113  CG1       49.5970   53.2880   36.5190 C.3   119  ILE119      0.0022
    114  CG2       51.2630   55.1410   35.8250 C.3   119  ILE119      0.0023
    115  CD1       48.8080   54.0970   37.5150 C.3   119  ILE119      0.0001
    116  N         52.0400   53.3470   33.3330 N.am  120  GLY120     -0.1940
    117  CA        51.7020   53.3050   31.9160 C.3   120  GLY120      0.2014
    118  C         52.1440   52.0080   31.2560 C.2   120  GLY120      0.2638
    119  O         51.4300   51.4910   30.4040 O.2   120  GLY120     -0.2714
    120  N         53.3070   51.4860   31.6650 N.am  121  ASP121     -0.1971
    121  CA        53.7830   50.1670   31.1900 C.3   121  ASP121      0.1709
    122  C         52.7970   49.0770   31.5710 C.2   121  ASP121      0.2293
    123  O         52.5000   48.1930   30.7560 O.2   121  ASP121     -0.2864
    124  CB        55.1410   49.8080   31.7680 C.3   121  ASP121      0.1436
    125  CG        56.2330   50.7460   31.3270 C.2   121  ASP121      0.3671
    126  OD1       56.2450   51.1480   30.1410 O.co2 121  ASP121     -0.2456
    127  OD2       57.0780   51.0760   32.1810 O.co2 121  ASP121     -0.2456
    128  N         49.5110   49.3390   32.3480 N.3   123  VAL123     -0.1231
    129  CA        48.2740   49.5080   31.6040 C.3   123  VAL123      0.1692
    130  C         48.4780   49.0410   30.1610 C.2   123  VAL123      0.2591
    131  O         47.6370   48.3210   29.6210 O.2   123  VAL123     -0.2718
    132  CB        47.8070   50.9840   31.6420 C.3   123  VAL123      0.0266
    133  CG1       46.6890   51.2360   30.6350 C.3   123  VAL123      0.0020
    134  CG2       47.3710   51.3700   33.0590 C.3   123  VAL123      0.0020
    135  N         49.5990   49.4090   29.5460 N.am  124  LYS124     -0.1980
    136  CA        49.8490   48.9940   28.1550 C.3   124  LYS124      0.1596
    137  C         49.9190   47.4690   28.0490 C.2   124  LYS124      0.2287
    138  O         49.4070   46.8930   27.0890 O.2   124  LYS124     -0.2864
    139  CB        51.1090   49.6370   27.5690 C.3   124  LYS124      0.0298
    140  CG        51.2510   49.3870   26.0660 C.3   124  LYS124      0.0038
    141  CD        52.4630   50.0410   25.4650 C.3   124  LYS124      0.0206
    142  CE        52.4410   49.8330   23.9460 C.3   124  LYS124      0.1093
    143  NZ        53.5480   50.5230   23.2350 N.3   124  LYS124     -0.1314
@<TRIPOS>BOND
     1   143   142    1
     2   142   141    1
     3    38    36   am
     4   141   140    1
     5   140   139    1
     6    35    36    1
     7    35    32    1
     8    36    37    2
     9     4     3    2
    10   138   137    2
    11     3     2    1
    12    31    32    1
    13     1     2    1
    14    15    14    1
    15    32    33    1
    16     2     5    1
    17   139   136    1
    18    16    14    1
    19   137   136    1
    20   136   135    1
    21    34    33    2
    22    14    11    1
    23    33    39   am
    24     5     6    1
    25     6     7    1
    26    10    11    1
    27   135   130   am
    28    11    12    1
    29   131   130    2
    30    39    40    1
    31     8     7    1
    32     8     9    1
    33    45    43    1
    34   126   125   ar
    35   130   129    1
    36   119   118    2
    37   133   132    1
    38    30    28    1
    39   123   122    2
    40    12    13    2
    41    12    17   am
    42    40    43    1
    43    40    41    1
    44   121   122    1
    45   121   120    1
    46   121   124    1
    47   118   120   am
    48   118   117    1
    49    43    44    1
    50   125   124    1
    51   125   127   ar
    52    44    46    1
    53    17    18    1
    54   129   132    1
    55   129   128    1
    56   132   134    1
    57    29    28    1
    58   117   116    1
    59    28    25    1
    60    20    19    2
    61    42    41    2
    62    41    47   am
    63    19    18    1
    64    19    24   am
    65    25    24    1
    66    25    26    1
    67    18    21    1
    68   107   106    1
    69    47    48    1
    70   116   110   am
    71    97    96    2
    72    72    70   ar
    73   111   110    2
    74    21    23    1
    75    21    22    1
    76    26    27    2
    77   110   109    1
    78   106   103    1
    79    48    49    1
    80   105   104    2
    81    71    70   ar
    82    70    69    1
    83    94    95    1
    84    96    95    1
    85   102   103    1
    86    54    53    2
    87   104   103    1
    88   104   108   am
    89   101    99    1
    90    98    95    1
    91    98    99    1
    92    51    49   am
    93    51    52    1
    94   109   108    1
    95   109   112    1
    96    49    50    2
    97   114   112    1
    98    69    68    1
    99    93    91   ar
   100    93    92   ar
   101    53    52    1
   102    99   100    1
   103   112   113    1
   104    91    89   ar
   105   113   115    1
   106    52    55    1
   107    63    61    1
   108    92    90   ar
   109    68    65    1
   110    76    75    2
   111    89    90   ar
   112    89    88    1
   113    56    57    1
   114    79    80    1
   115    79    78    1
   116    61    60    1
   117    61    62    1
   118    80    81    2
   119    82    81    1
   120    65    64    1
   121    65    66    1
   122    81    83    1
   123    60    57    1
   124    77    78    1
   125    77    74    1
   126    59    58    2
   127    88    85    1
   128    75    74    1
   129    75    84   am
   130    85    84    1
   131    85    86    1
   132    57    58    1
   133    74    73    1
   134    66    67    2
   135    86    87    2
