@<TRIPOS>MOLECULE
tmp/2rc6A01.pdb
 204 192 0 0 0
SMALL
GASTEIGER

@<TRIPOS>ATOM
      1  N          3.1940   -4.0440    5.1030 N.3    35  ARG35      -0.1245
      2  CA         4.3790   -3.7880    5.9200 C.3    35  ARG35       0.1563
      3  C          4.5410   -4.8440    7.0110 C.2    35  ARG35       0.2260
      4  O          3.6710   -4.9970    7.8680 O.2    35  ARG35      -0.2867
      5  CB         4.3320   -2.3910    6.5370 C.3    35  ARG35       0.0307
      6  CG         5.5890   -2.0290    7.3130 C.3    35  ARG35       0.0489
      7  CD         5.4500   -0.6940    8.0320 C.3    35  ARG35       0.2205
      8  NE         5.4870    0.4380    7.1110 N.pl3  35  ARG35      -0.0865
      9  CZ         6.5550    1.2020    6.9100 C.cat  35  ARG35       0.5346
     10  NH1        7.6800    0.9600    7.5670 N.pl3  35  ARG35       0.1354
     11  NH2        6.4980    2.2110    6.0520 N.pl3  35  ARG35       0.1354
     12  N          2.9760    1.6720    9.9320 N.3    42  ALA42      -0.1245
     13  CA         2.6740    2.8720    9.1630 C.3    42  ALA42       0.1562
     14  C          1.2140    3.2700    9.3780 C.2    42  ALA42       0.2260
     15  O          0.3410    2.9250    8.5810 O.2    42  ALA42      -0.2867
     16  CB         2.9590    2.6480    7.6890 C.3    42  ALA42       0.0290
     17  N         -1.3530    6.1330    9.4230 N.3    44  VAL44      -0.1245
     18  CA        -1.6040    7.4990    8.9750 C.3    44  VAL44       0.1561
     19  C         -3.0680    7.8850    9.1610 C.2    44  VAL44       0.2260
     20  O         -3.9650    7.2070    8.6620 O.2    44  VAL44      -0.2867
     21  CB        -1.2180    7.6820    7.4990 C.3    44  VAL44       0.0252
     22  CG1       -1.3540    9.1400    7.0900 C.3    44  VAL44       0.0019
     23  CG2        0.1960    7.1900    7.2590 C.3    44  VAL44       0.0019
     24  N          0.9800   11.1780   10.4860 N.3   111  LYS111     -0.1245
     25  CA         1.4270    9.8130   10.7250 C.3   111  LYS111      0.1561
     26  C          2.1310    9.6760   12.0690 C.2   111  LYS111      0.2260
     27  O          2.9320   10.5290   12.4470 O.2   111  LYS111     -0.2867
     28  CB         2.3580    9.3490    9.6070 C.3   111  LYS111      0.0271
     29  CG         3.2900    8.2320   10.0290 C.3   111  LYS111      0.0035
     30  CD         3.6350    7.3260    8.8650 C.3   111  LYS111      0.0206
     31  CE         4.5840    6.2190    9.2970 C.3   111  LYS111      0.1093
     32  NZ         5.9910    6.6950    9.3830 N.3   111  LYS111     -0.1314
     33  N          4.7750    9.1330   14.3390 N.3   113  ASP113     -0.1225
     34  CA         6.2130    9.1740   14.1160 C.3   113  ASP113      0.1805
     35  C          6.9600    8.4480   15.2270 C.2   113  ASP113      0.2598
     36  O          7.3450    9.0530   16.2260 O.2   113  ASP113     -0.2718
     37  CB         6.6890   10.6250   14.0130 C.3   113  ASP113      0.1424
     38  CG         8.0910   10.7390   13.4510 C.2   113  ASP113      0.3668
     39  OD1        8.8850    9.7940   13.6360 O.co2 113  ASP113     -0.2456
     40  OD2        8.4000   11.7740   12.8240 O.co2 113  ASP113     -0.2456
     41  N          7.1610    7.1460   15.0450 N.am  114  ASN114     -0.1960
     42  CA         7.8550    6.3260   16.0320 C.3   114  ASN114      0.1819
     43  C          9.1970    5.8220   15.5070 C.2   114  ASN114      0.2621
     44  O          9.5670    6.1060   14.3680 O.2   114  ASN114     -0.2715
     45  CB         6.9680    5.1580   16.4650 C.3   114  ASN114      0.1195
     46  CG         5.6710    5.6210   17.0930 C.2   114  ASN114      0.2630
     47  OD1        5.6320    6.6410   17.7820 O.2   114  ASN114     -0.2716
     48  ND2        4.5990    4.8730   16.8580 N.am  114  ASN114     -0.0877
     49  N          9.9230    5.0720   16.3310 N.am  115  ILE115     -0.1977
     50  CA        11.2780    4.6570   15.9710 C.3   115  ILE115      0.1596
     51  C         11.4430    3.1720   15.6590 C.2   115  ILE115      0.2287
     52  O         11.9240    2.8130   14.5850 O.2   115  ILE115     -0.2864
     53  CB        12.2990    5.0650   17.0450 C.3   115  ILE115      0.0276
     54  CG1       12.6820    6.5340   16.8640 C.3   115  ILE115      0.0022
     55  CG2       13.5400    4.2000   16.9520 C.3   115  ILE115      0.0022
     56  CD1       13.1380    6.8690   15.4600 C.3   115  ILE115      0.0001
     57  N          5.9250   12.5410   -1.0690 N.3   165  THR165     -0.1203
     58  CA         6.2670   11.2620   -0.4630 C.3   165  THR165      0.1994
     59  C          5.6080   11.1670    0.9090 C.2   165  THR165      0.2618
     60  O          5.7350   12.0780    1.7310 O.2   165  THR165     -0.2717
     61  CB         7.7930   11.0780   -0.3170 C.3   165  THR165      0.1784
     62  OG1        8.3260   12.1030    0.5320 O.3   165  THR165     -0.2211
     63  CG2        8.4720   11.1370   -1.6750 C.3   165  THR165      0.0376
     64  N          4.8990   10.0680    1.1480 N.am  166  GLY166     -0.1942
     65  CA         4.2030    9.8700    2.4060 C.3   166  GLY166      0.2014
     66  C          3.2270   10.9910    2.7080 C.2   166  GLY166      0.2639
     67  O          2.4300   11.3840    1.8550 O.2   166  GLY166     -0.2714
     68  N          3.2970   11.5140    3.9280 N.am  167  THR167     -0.1950
     69  CA         2.4140   12.5960    4.3550 C.3   167  THR167      0.1897
     70  C          2.5840   13.8660    3.5200 C.2   167  THR167      0.2313
     71  O          1.7630   14.7770    3.5950 O.2   167  THR167     -0.2863
     72  CB         2.6170   12.9360    5.8410 C.3   167  THR167      0.1794
     73  OG1        4.0090   13.1560    6.0970 O.3   167  THR167     -0.2208
     74  CG2        2.1260   11.7990    6.7160 C.3   167  THR167      0.0378
     75  N          4.6910    9.0810   -3.8600 N.3   196  GLY196     -0.1210
     76  CA         5.4390    7.9020   -3.4610 C.3   196  GLY196      0.1956
     77  C          5.2460    7.4660   -2.0190 C.2   196  GLY196      0.2612
     78  O          5.0650    8.2930   -1.1240 O.2   196  GLY196     -0.2717
     79  N          5.2890    6.1540   -1.8020 N.am  197  ALA197     -0.1966
     80  CA         5.2210    5.5730   -0.4640 C.3   197  ALA197      0.1713
     81  C          5.8040    4.1640   -0.4920 C.2   197  ALA197      0.2458
     82  O          6.0070    3.6020   -1.5650 O.2   197  ALA197     -0.2730
     83  CB         3.7880    5.5520    0.0350 C.3   197  ALA197      0.0333
     84  N          6.0840    3.5900    0.6890 N.am  198  PRO198     -0.2727
     85  CA         6.6870    2.2520    0.7770 C.3   198  PRO198      0.1402
     86  C          5.8160    1.1360    0.1930 C.2   198  PRO198      0.2269
     87  O          6.3200    0.3190   -0.5770 O.2   198  PRO198     -0.2865
     88  CB         6.8680    2.0500    2.2860 C.3   198  PRO198      0.0296
     89  CG         6.9190    3.4310    2.8500 C.3   198  PRO198      0.0237
     90  CD         5.9760    4.2300    2.0110 C.3   198  PRO198      0.0939
     91  N         -0.0800    2.0800    1.7330 N.3   202  GLU202     -0.1245
     92  CA         0.3670    3.2510    2.4810 C.3   202  GLU202      0.1567
     93  C          0.1870    4.5300    1.6640 C.2   202  GLU202      0.2260
     94  O          0.4200    5.6370    2.1490 O.2   202  GLU202     -0.2867
     95  CB         1.8060    3.0740    2.9700 C.3   202  GLU202      0.0388
     96  CG         1.9160    2.0660    4.1100 C.3   202  GLU202      0.1160
     97  CD         3.3440    1.7720    4.5180 C.2   202  GLU202      0.3649
     98  OE1        4.1990    2.6770    4.4100 O.co2 202  GLU202     -0.2457
     99  OE2        3.6080    0.6330    4.9590 O.co2 202  GLU202     -0.2457
    100  N          4.9440    6.0110   -6.9340 N.3   224  ALA224     -0.1245
    101  CA         6.2180    5.3270   -6.7680 C.3   224  ALA224      0.1562
    102  C          6.1970    4.5260   -5.4730 C.2   224  ALA224      0.2260
    103  O          6.4410    5.0600   -4.3910 O.2   224  ALA224     -0.2867
    104  CB         7.3630    6.3240   -6.7640 C.3   224  ALA224      0.0290
    105  N          8.0100    2.3180   -3.4080 N.3   226  SER226     -0.1202
    106  CA         9.4340    2.0030   -3.3100 C.3   226  SER226      0.2020
    107  C          9.7820    0.5580   -2.9530 C.2   226  SER226      0.2618
    108  O         10.8030    0.0360   -3.4020 O.2   226  SER226     -0.2717
    109  CB        10.1040    2.9480   -2.3120 C.3   226  SER226      0.2103
    110  OG         9.5070    2.8240   -1.0330 O.3   226  SER226     -0.2182
    111  N          8.9530   -0.0870   -2.1420 N.am  227  ARG227     -0.1979
    112  CA         9.2810   -1.4250   -1.6690 C.3   227  ARG227      0.1597
    113  C          8.5340   -2.5240   -2.4230 C.2   227  ARG227      0.2287
    114  O          8.5350   -3.6820   -2.0070 O.2   227  ARG227     -0.2864
    115  CB         9.0560   -1.5270   -0.1550 C.3   227  ARG227      0.0334
    116  CG         9.9020   -0.5370    0.6380 C.3   227  ARG227      0.0492
    117  CD         9.6740   -0.6180    2.1400 C.3   227  ARG227      0.2205
    118  NE        10.1250    0.6050    2.8010 N.pl3 227  ARG227     -0.0865
    119  CZ         9.9600    0.8730    4.0940 C.cat 227  ARG227      0.5346
    120  NH1        9.3570   -0.0010    4.8860 N.pl3 227  ARG227      0.1354
    121  NH2       10.4010    2.0190    4.5950 N.pl3 227  ARG227      0.1354
    122  N         15.2970    0.7900   -5.7060 N.3   237  ARG237     -0.1245
    123  CA        13.9270    1.0770   -5.2980 C.3   237  ARG237      0.1563
    124  C         13.3290    2.1690   -6.1770 C.2   237  ARG237      0.2260
    125  O         14.0390    3.0670   -6.6330 O.2   237  ARG237     -0.2867
    126  CB        13.8800    1.4910   -3.8280 C.3   237  ARG237      0.0307
    127  CG        14.3660    0.4180   -2.8680 C.3   237  ARG237      0.0489
    128  CD        14.0270    0.7710   -1.4280 C.3   237  ARG237      0.2205
    129  NE        14.3600   -0.3140   -0.5110 N.pl3 237  ARG237     -0.0865
    130  CZ        13.9440   -0.3820    0.7500 C.cat 237  ARG237      0.5346
    131  NH1       13.1720    0.5750    1.2480 N.pl3 237  ARG237      0.1354
    132  NH2       14.2960   -1.4090    1.5120 N.pl3 237  ARG237      0.1354
    133  N         11.6600    5.4020   -6.6360 N.3   239  TYR239     -0.1227
    134  CA        11.3440    6.6550   -5.9630 C.3   239  TYR239      0.1736
    135  C         10.6750    7.6170   -6.9360 C.2   239  TYR239      0.2595
    136  O         10.7120    7.4070   -8.1490 O.2   239  TYR239     -0.2718
    137  CB        12.6040    7.3010   -5.3780 C.3   239  TYR239      0.0548
    138  CG        13.1880    6.5720   -4.1860 C.ar  239  TYR239     -0.0200
    139  CD1       12.4020    5.7390   -3.4020 C.ar  239  TYR239     -0.0009
    140  CD2       14.5190    6.7400   -3.8300 C.ar  239  TYR239     -0.0009
    141  CE1       12.9320    5.0780   -2.3100 C.ar  239  TYR239      0.0417
    142  CE2       15.0560    6.0860   -2.7380 C.ar  239  TYR239      0.0417
    143  CZ        14.2580    5.2570   -1.9820 C.ar  239  TYR239      0.1957
    144  OH        14.7890    4.6030   -0.8940 O.3   239  TYR239     -0.2866
    145  N         10.0670    8.6730   -6.4060 N.am  240  ILE240     -0.1966
    146  CA         9.4270    9.6740   -7.2480 C.3   240  ILE240      0.1727
    147  C         10.4400   10.3020   -8.1960 C.2   240  ILE240      0.2616
    148  O         10.0830   10.7780   -9.2730 O.2   240  ILE240     -0.2715
    149  CB         8.7530   10.7790   -6.4140 C.3   240  ILE240      0.0290
    150  CG1        9.7870   11.5180   -5.5630 C.3   240  ILE240      0.0022
    151  CG2        7.6590   10.1910   -5.5370 C.3   240  ILE240      0.0023
    152  CD1        9.2280   12.7270   -4.8430 C.3   240  ILE240      0.0001
    153  N         11.7080   10.2970   -7.7950 N.am  241  SER241     -0.1950
    154  CA        12.7620   10.8730   -8.6190 C.3   241  SER241      0.1924
    155  C         12.9030   10.1120   -9.9360 C.2   241  SER241      0.2314
    156  O         13.1370   10.7120  -10.9840 O.2   241  SER241     -0.2863
    157  CB        14.0910   10.9030   -7.8590 C.3   241  SER241      0.2116
    158  OG        14.4420    9.6150   -7.3860 O.3   241  SER241     -0.2180
    159  N          8.9940   13.5720    3.0610 N.3   266  GLY266     -0.1210
    160  CA        10.2430   13.1830    3.6910 C.3   266  GLY266      0.1940
    161  C         11.0200   12.1650    2.8780 C.2   266  GLY266      0.2453
    162  O         10.5490   11.7050    1.8400 O.2   266  GLY266     -0.2732
    163  N         12.2270   11.8140    3.3420 N.am  267  PRO267     -0.2728
    164  CA        12.8170   12.4030    4.5470 C.3   267  PRO267      0.1401
    165  C         13.4460   13.7570    4.2420 C.2   267  PRO267      0.2269
    166  O         13.4610   14.1850    3.0870 O.2   267  PRO267     -0.2865
    167  CB        13.9040   11.4010    4.9220 C.3   267  PRO267      0.0296
    168  CG        14.3040   10.7790    3.6310 C.3   267  PRO267      0.0237
    169  CD        13.1230   10.8350    2.7030 C.3   267  PRO267      0.0939
    170  N         15.5140   16.6690    3.0720 N.3   269  GLY269     -0.1210
    171  CA        16.4520   16.7810    1.9700 C.3   269  GLY269      0.1956
    172  C         16.2320   15.7670    0.8630 C.2   269  GLY269      0.2611
    173  O         17.1540   15.4620    0.1070 O.2   269  GLY269     -0.2717
    174  N         15.0130   15.2430    0.7610 N.am  270  MET270     -0.1979
    175  CA        14.6910   14.2840   -0.2920 C.3   270  MET270      0.1605
    176  C         14.4900   14.9990   -1.6230 C.2   270  MET270      0.2287
    177  O         14.3790   14.3630   -2.6710 O.2   270  MET270     -0.2864
    178  CB        13.4500   13.4620    0.0730 C.3   270  MET270      0.0413
    179  CG        12.1300   14.2170   -0.0190 C.3   270  MET270      0.0598
    180  SD        11.3940   14.1830   -1.6670 S.3   270  MET270     -0.1393
    181  CE         9.8050   14.9390   -1.3380 C.3   270  MET270      0.0692
    182  N         17.5380   14.6880   -4.7270 N.3   273  GLY273     -0.1210
    183  CA        17.4470   13.6850   -5.7740 C.3   273  GLY273      0.1956
    184  C         16.4470   14.0430   -6.8560 C.2   273  GLY273      0.2611
    185  O         16.7050   13.8450   -8.0420 O.2   273  GLY273     -0.2717
    186  N         15.2970   14.5680   -6.4440 N.am  274  VAL274     -0.1979
    187  CA        14.2720   15.0010   -7.3850 C.3   274  VAL274      0.1595
    188  C         14.7640   16.1740   -8.2200 C.2   274  VAL274      0.2287
    189  O         14.6290   16.1800   -9.4440 O.2   274  VAL274     -0.2864
    190  CB        12.9840   15.4260   -6.6600 C.3   274  VAL274      0.0276
    191  CG1       12.0050   16.0410   -7.6440 C.3   274  VAL274      0.0022
    192  CG2       12.3600   14.2380   -5.9430 C.3   274  VAL274      0.0022
    193  N         10.8350   17.3700    5.2580 N.3   306  TYR306     -0.1241
    194  CA        11.0590   17.1890    6.6830 C.3   306  TYR306      0.1605
    195  C         11.2560   15.7180    7.0060 C.2   306  TYR306      0.2264
    196  O         11.5160   15.3590    8.1530 O.2   306  TYR306     -0.2867
    197  CB         9.8690   17.7380    7.4690 C.3   306  TYR306      0.0534
    198  CG         8.5380   17.2100    6.9820 C.ar  306  TYR306     -0.0201
    199  CD1        8.0510   15.9880    7.4210 C.ar  306  TYR306     -0.0009
    200  CD2        7.7750   17.9290    6.0730 C.ar  306  TYR306     -0.0009
    201  CE1        6.8420   15.5000    6.9730 C.ar  306  TYR306      0.0417
    202  CE2        6.5640   17.4510    5.6220 C.ar  306  TYR306      0.0417
    203  CZ         6.1000   16.2350    6.0750 C.ar  306  TYR306      0.1957
    204  OH         4.8900   15.7530    5.6250 O.3   306  TYR306     -0.2866
@<TRIPOS>BOND
     1   156   155    2
     2   155   154    1
     3   189   188    2
     4   148   147    2
     5   154   157    1
     6   154   153    1
     7   188   187    1
     8   147   153   am
     9   147   146    1
    10   136   135    2
    11   185   184    2
    12   157   158    1
    13   191   190    1
    14   187   190    1
    15   187   186    1
    16   146   149    1
    17   146   145    1
    18   135   145   am
    19   135   134    1
    20   100   101    1
    21   184   186   am
    22   184   183    1
    23   101   104    1
    24   101   102    1
    25   190   192    1
    26   133   134    1
    27   125   124    2
    28   149   150    1
    29   149   151    1
    30   124   123    1
    31   134   137    1
    32   183   182    1
    33   122   123    1
    34   150   152    1
    35   102   103    2
    36   137   138    1
    37   123   126    1
    38   138   140   ar
    39   138   139   ar
    40    75    76    1
    41   140   142   ar
    42   126   127    1
    43    76    77    1
    44   105   106    1
    45   108   107    2
    46   139   141   ar
    47   106   107    1
    48   106   109    1
    49   107   111   am
    50   127   128    1
    51   142   143   ar
    52   177   176    2
    53   113   114    2
    54   113   112    1
    55   109   110    1
    56   141   143   ar
    57   111   112    1
    58    77    79   am
    59    77    78    2
    60   143   144    1
    61    79    80    1
    62    63    61    1
    63   112   115    1
    64   180   181    1
    65   180   179    1
    66   176   175    1
    67    82    81    2
    68   128   129    1
    69    57    58    1
    70    87    86    2
    71   129   130    2
    72    81    80    1
    73    81    84   am
    74    80    83    1
    75    58    61    1
    76    58    59    1
    77    61    62    1
    78   175   178    1
    79   175   174    1
    80   115   116    1
    81   179   178    1
    82   173   172    2
    83    86    85    1
    84   116   117    1
    85    84    85    1
    86    84    90    1
    87   130   131    1
    88   130   132    1
    89   174   172   am
    90    85    88    1
    91   172   171    1
    92    59    64   am
    93    59    60    2
    94    64    65    1
    95    93    94    2
    96    93    92    1
    97    91    92    1
    98   162   161    2
    99    67    66    2
   100   171   170    1
   101    90    89    1
   102   117   118    1
   103    88    89    1
   104    65    66    1
   105    92    95    1
   106   169   163    1
   107   169   168    1
   108    66    68   am
   109   118   119    2
   110   161   163   am
   111   161   160    1
   112    95    96    1
   113   159   160    1
   114   166   165    2
   115   163   164    1
   116    70    71    2
   117    70    69    1
   118   168   167    1
   119    68    69    1
   120   119   121    1
   121   119   120    1
   122    96    97    1
   123   165   164    1
   124    69    72    1
   125    98    97   ar
   126    97    99   ar
   127   164   167    1
   128     1     2    1
   129   193   194    1
   130   202   200   ar
   131   202   203   ar
   132   204   203    1
   133    72    73    1
   134    72    74    1
   135     2     5    1
   136     2     3    1
   137    11     9    1
   138   200   198   ar
   139   203   201   ar
   140     5     6    1
   141   194   195    1
   142   194   197    1
   143     9     8    2
   144     9    10    1
   145   201   199   ar
   146   198   199   ar
   147   198   197    1
   148   195   196    2
   149     3     4    2
   150    22    21    1
   151     8     7    1
   152    23    21    1
   153     6     7    1
   154    21    18    1
   155    16    13    1
   156    15    14    2
   157    20    19    2
   158    30    31    1
   159    30    29    1
   160    18    19    1
   161    18    17    1
   162    13    14    1
   163    13    12    1
   164    31    32    1
   165    28    29    1
   166    28    25    1
   167    24    25    1
   168    25    26    1
   169    26    27    2
   170    40    38   ar
   171    38    39   ar
   172    38    37    1
   173    37    34    1
   174    34    33    1
   175    34    35    1
   176    44    43    2
   177    52    51    2
   178    41    35   am
   179    41    42    1
   180    35    36    2
   181    56    54    1
   182    43    42    1
   183    43    49   am
   184    51    50    1
   185    50    49    1
   186    50    53    1
   187    42    45    1
   188    45    46    1
   189    48    46   am
   190    54    53    1
   191    55    53    1
   192    46    47    2
