@<TRIPOS>MOLECULE
tmp/2rc6A00.pdb
 175 170 0 0 0
SMALL
GASTEIGER

@<TRIPOS>ATOM
      1  N          1.0630   25.9300    6.6430 N.3    63  SER63      -0.1217
      2  CA         1.1270   24.9400    7.7090 C.3    63  SER63       0.1889
      3  C          0.3620   25.4180    8.9320 C.2    63  SER63       0.2288
      4  O          0.3210   26.6120    9.2270 O.2    63  SER63      -0.2866
      5  CB         2.5790   24.6540    8.0950 C.3    63  SER63       0.2089
      6  OG         3.3180   24.1650    6.9910 O.3    63  SER63      -0.2183
      7  N          4.6280   21.8170   16.9270 N.3    88  ARG88      -0.1231
      8  CA         4.8450   20.9360   15.7860 C.3    88  ARG88       0.1694
      9  C          4.0210   21.4240   14.5990 C.2    88  ARG88       0.2592
     10  O          2.8440   21.7550   14.7500 O.2    88  ARG88      -0.2718
     11  CB         4.4470   19.5010   16.1280 C.3    88  ARG88       0.0321
     12  CG         5.5700   18.6480   16.6930 C.3    88  ARG88       0.0489
     13  CD         5.9190   19.0290   18.1200 C.3    88  ARG88       0.2205
     14  NE         6.7890   18.0310   18.7360 N.pl3  88  ARG88      -0.0865
     15  CZ         7.3320   18.1540   19.9410 C.cat  88  ARG88       0.5346
     16  NH1        7.1010   19.2380   20.6680 N.pl3  88  ARG88       0.1354
     17  NH2        8.1070   17.1930   20.4210 N.pl3  88  ARG88       0.1354
     18  N          4.6360   21.4670   13.4210 N.am   89  LEU89      -0.1966
     19  CA         3.9460   21.9380   12.2200 C.3    89  LEU89       0.1728
     20  C          3.3750   20.7950   11.3800 C.2    89  LEU89       0.2616
     21  O          3.9520   19.7130   11.3190 O.2    89  LEU89      -0.2715
     22  CB         4.8820   22.7940   11.3630 C.3    89  LEU89       0.0311
     23  CG         5.3370   24.1300   11.9500 C.3    89  LEU89       0.0022
     24  CD1        6.3300   24.8010   11.0170 C.3    89  LEU89       0.0001
     25  CD2        4.1460   25.0400   12.2130 C.3    89  LEU89       0.0001
     26  N          2.2410   21.0470   10.7330 N.am   90  TYR90      -0.1960
     27  CA         1.6220   20.0610    9.8480 C.3    90  TYR90       0.1771
     28  C          1.0200   20.7230    8.6150 C.2    90  TYR90       0.2620
     29  O          0.3390   21.7430    8.7150 O.2    90  TYR90      -0.2715
     30  CB         0.5610   19.2490   10.5980 C.3    90  TYR90       0.0574
     31  CG         1.1520   18.3850   11.6810 C.ar   90  TYR90      -0.0198
     32  CD1        1.7320   17.1600   11.3770 C.ar   90  TYR90      -0.0009
     33  CD2        1.1560   18.8040   13.0060 C.ar   90  TYR90      -0.0009
     34  CE1        2.2900   16.3700   12.3630 C.ar   90  TYR90       0.0417
     35  CE2        1.7120   18.0200   14.0010 C.ar   90  TYR90       0.0417
     36  CZ         2.2780   16.8040   13.6740 C.ar   90  TYR90       0.1957
     37  OH         2.8310   16.0200   14.6600 O.3    90  TYR90      -0.2866
     38  N          1.2830   20.1420    7.4490 N.am   91  SER91      -0.1950
     39  CA         0.7860   20.7000    6.1980 C.3    91  SER91       0.1924
     40  C         -0.7360   20.6470    6.1320 C.2    91  SER91       0.2314
     41  O         -1.3360   19.5730    6.1970 O.2    91  SER91      -0.2863
     42  CB         1.3930   19.9710    4.9970 C.3    91  SER91       0.2116
     43  OG         2.7830   20.2250    4.8960 O.3    91  SER91      -0.2180
     44  N         -3.0380   15.5340    7.4700 N.3   109  ILE109     -0.1231
     45  CA        -2.6870   14.1450    7.1960 C.3   109  ILE109      0.1692
     46  C         -1.4610   13.7810    8.0250 C.2   109  ILE109      0.2592
     47  O         -0.3320   14.0550    7.6290 O.2   109  ILE109     -0.2718
     48  CB        -2.3820   13.9170    5.7060 C.3   109  ILE109      0.0266
     49  CG1       -3.5630   14.3560    4.8440 C.3   109  ILE109      0.0019
     50  CG2       -2.0690   12.4540    5.4460 C.3   109  ILE109      0.0020
     51  CD1       -4.7040   13.3670    4.8210 C.3   109  ILE109      0.0001
     52  N         -1.6930   13.1610    9.1780 N.am  110  ILE110     -0.1966
     53  CA        -0.6400   12.9470   10.1630 C.3   110  ILE110      0.1727
     54  C         -0.3090   11.4760   10.3700 C.2   110  ILE110      0.2616
     55  O         -1.2000   10.6290   10.4280 O.2   110  ILE110     -0.2715
     56  CB        -1.0280   13.5660   11.5200 C.3   110  ILE110      0.0290
     57  CG1       -1.2390   15.0750   11.3730 C.3   110  ILE110      0.0022
     58  CG2        0.0290   13.2690   12.5690 C.3   110  ILE110      0.0023
     59  CD1       -1.6870   15.7590   12.6430 C.3   110  ILE110      0.0001
     60  N          0.9800   11.1780   10.4860 N.am  111  LYS111     -0.1977
     61  CA         1.4270    9.8130   10.7250 C.3   111  LYS111      0.1596
     62  C          2.1310    9.6760   12.0690 C.2   111  LYS111      0.2287
     63  O          2.9320   10.5290   12.4470 O.2   111  LYS111     -0.2864
     64  CB         2.3580    9.3490    9.6070 C.3   111  LYS111      0.0298
     65  CG         3.2900    8.2320   10.0290 C.3   111  LYS111      0.0038
     66  CD         3.6350    7.3260    8.8650 C.3   111  LYS111      0.0206
     67  CE         4.5840    6.2190    9.2970 C.3   111  LYS111      0.1093
     68  NZ         5.9910    6.6950    9.3830 N.3   111  LYS111     -0.1314
     69  N          4.7750    9.1330   14.3390 N.3   113  ASP113     -0.1225
     70  CA         6.2130    9.1740   14.1160 C.3   113  ASP113      0.1805
     71  C          6.9600    8.4480   15.2270 C.2   113  ASP113      0.2598
     72  O          7.3450    9.0530   16.2260 O.2   113  ASP113     -0.2718
     73  CB         6.6890   10.6250   14.0130 C.3   113  ASP113      0.1424
     74  CG         8.0910   10.7390   13.4510 C.2   113  ASP113      0.3668
     75  OD1        8.8850    9.7940   13.6360 O.co2 113  ASP113     -0.2456
     76  OD2        8.4000   11.7740   12.8240 O.co2 113  ASP113     -0.2456
     77  N          7.1610    7.1460   15.0450 N.am  114  ASN114     -0.1960
     78  CA         7.8550    6.3260   16.0320 C.3   114  ASN114      0.1819
     79  C          9.1970    5.8220   15.5070 C.2   114  ASN114      0.2621
     80  O          9.5670    6.1060   14.3680 O.2   114  ASN114     -0.2715
     81  CB         6.9680    5.1580   16.4650 C.3   114  ASN114      0.1195
     82  CG         5.6710    5.6210   17.0930 C.2   114  ASN114      0.2630
     83  OD1        5.6320    6.6410   17.7820 O.2   114  ASN114     -0.2716
     84  ND2        4.5990    4.8730   16.8580 N.am  114  ASN114     -0.0877
     85  N          9.9230    5.0720   16.3310 N.am  115  ILE115     -0.1977
     86  CA        11.2780    4.6570   15.9710 C.3   115  ILE115      0.1596
     87  C         11.4430    3.1720   15.6590 C.2   115  ILE115      0.2287
     88  O         11.9240    2.8130   14.5850 O.2   115  ILE115     -0.2864
     89  CB        12.2990    5.0650   17.0450 C.3   115  ILE115      0.0276
     90  CG1       12.6820    6.5340   16.8640 C.3   115  ILE115      0.0022
     91  CG2       13.5400    4.2000   16.9520 C.3   115  ILE115      0.0022
     92  CD1       13.1380    6.8690   15.4600 C.3   115  ILE115      0.0001
     93  N         10.9070    4.3060   20.4260 N.3   122  PHE122     -0.1227
     94  CA        10.6260    5.6850   20.8090 C.3   122  PHE122      0.1736
     95  C          9.2990    6.1340   20.2150 C.2   122  PHE122      0.2595
     96  O          8.8800    5.6390   19.1690 O.2   122  PHE122     -0.2718
     97  CB        11.7600    6.6170   20.3790 C.3   122  PHE122      0.0547
     98  CG        13.0500    6.3790   21.1150 C.ar  122  PHE122     -0.0202
     99  CD1       13.1380    6.6150   22.4770 C.ar  122  PHE122     -0.0042
    100  CD2       14.1740    5.9210   20.4460 C.ar  122  PHE122     -0.0042
    101  CE1       14.3200    6.3960   23.1590 C.ar  122  PHE122     -0.0003
    102  CE2       15.3590    5.7010   21.1230 C.ar  122  PHE122     -0.0003
    103  CZ        15.4310    5.9400   22.4810 C.ar  122  PHE122     -0.0000
    104  N          8.6400    7.0730   20.8840 N.am  123  LYS123     -0.1966
    105  CA         7.2830    7.4540   20.5180 C.3   123  LYS123      0.1728
    106  C          7.1440    8.9650   20.3580 C.2   123  LYS123      0.2617
    107  O          7.2640    9.7110   21.3280 O.2   123  LYS123     -0.2715
    108  CB         6.3060    6.9400   21.5770 C.3   123  LYS123      0.0311
    109  CG         4.8600    6.8570   21.1260 C.3   123  LYS123      0.0038
    110  CD         4.0370    6.0320   22.1060 C.3   123  LYS123      0.0206
    111  CE         2.5790    5.9450   21.6830 C.3   123  LYS123      0.1093
    112  NZ         1.7890    5.0610   22.5870 N.3   123  LYS123     -0.1314
    113  N          6.8910    9.4110   19.1300 N.am  124  GLY124     -0.1940
    114  CA         6.7250   10.8260   18.8490 C.3   124  GLY124      0.2014
    115  C          5.5730   11.4290   19.6290 C.2   124  GLY124      0.2639
    116  O          4.4640   10.8970   19.6260 O.2   124  GLY124     -0.2714
    117  N          5.8340   12.5510   20.2910 N.am  125  VAL125     -0.1963
    118  CA         4.8510   13.1660   21.1790 C.3   125  VAL125      0.1727
    119  C          3.6070   13.6870   20.4600 C.2   125  VAL125      0.2616
    120  O          2.4960   13.2260   20.7180 O.2   125  VAL125     -0.2715
    121  CB         5.4700   14.3140   22.0040 C.3   125  VAL125      0.0290
    122  CG1        4.3830   15.0850   22.7380 C.3   125  VAL125      0.0023
    123  CG2        6.4990   13.7690   22.9820 C.3   125  VAL125      0.0023
    124  N          3.7940   14.6480   19.5620 N.am  126  CYS126     -0.1954
    125  CA         2.6600   15.3430   18.9620 C.3   126  CYS126      0.1843
    126  C          1.8710   14.5000   17.9670 C.2   126  CYS126      0.2626
    127  O          0.6430   14.5130   17.9770 O.2   126  CYS126     -0.2714
    128  CB         3.1070   16.6390   18.2980 C.3   126  CYS126      0.0997
    129  SG         1.7240   17.7090   17.9000 S.3   126  CYS126     -0.0797
    130  N          2.5760   13.7780   17.1040 N.am  127  SER127     -0.1950
    131  CA         1.9210   12.9670   16.0810 C.3   127  SER127      0.1924
    132  C          0.9840   11.9310   16.7010 C.2   127  SER127      0.2314
    133  O         -0.1040   11.6780   16.1850 O.2   127  SER127     -0.2863
    134  CB         2.9540   12.2930   15.1720 C.3   127  SER127      0.2116
    135  OG         3.8730   11.5190   15.9180 O.3   127  SER127     -0.2180
    136  N          3.2970   11.5140    3.9280 N.3   167  THR167     -0.1218
    137  CA         2.4140   12.5960    4.3550 C.3   167  THR167      0.1862
    138  C          2.5840   13.8660    3.5200 C.2   167  THR167      0.2287
    139  O          1.7630   14.7770    3.5950 O.2   167  THR167     -0.2866
    140  CB         2.6170   12.9360    5.8410 C.3   167  THR167      0.1770
    141  OG1        4.0090   13.1560    6.0970 O.3   167  THR167     -0.2211
    142  CG2        2.1260   11.7990    6.7160 C.3   167  THR167      0.0375
    143  N         -0.2120   15.7450    1.6170 N.3   170  ALA170     -0.1245
    144  CA        -1.2080   16.6060    2.2520 C.3   170  ALA170      0.1562
    145  C         -1.5670   17.8630    1.4530 C.2   170  ALA170      0.2260
    146  O         -2.7110   18.0180    1.0260 O.2   170  ALA170     -0.2867
    147  CB        -0.7790   16.9700    3.6780 C.3   170  ALA170      0.0290
    148  N          9.1780   21.8830    0.4410 N.3   304  GLU304     -0.1231
    149  CA         8.9530   21.7500    1.8750 C.3   304  GLU304      0.1699
    150  C          9.1420   20.2960    2.2890 C.2   304  GLU304      0.2593
    151  O          8.2310   19.4780    2.1540 O.2   304  GLU304     -0.2718
    152  CB         7.5460   22.2150    2.2500 C.3   304  GLU304      0.0402
    153  CG         7.3290   22.3570    3.7460 C.3   304  GLU304      0.1161
    154  CD         7.9800   23.6080    4.3050 C.2   304  GLU304      0.3649
    155  OE1        9.0660   23.5000    4.9140 O.co2 304  GLU304     -0.2457
    156  OE2        7.4070   24.7030    4.1230 O.co2 304  GLU304     -0.2457
    157  N         10.3310   19.9770    2.7860 N.am  305  THR305     -0.1939
    158  CA        10.6440   18.6130    3.1880 C.3   305  THR305      0.2028
    159  C         11.0120   18.5460    4.6640 C.2   305  THR305      0.2642
    160  O         11.4460   19.5380    5.2510 O.2   305  THR305     -0.2714
    161  CB        11.7900   18.0310    2.3510 C.3   305  THR305      0.1808
    162  OG1       12.9710   18.8170    2.5480 O.3   305  THR305     -0.2208
    163  CG2       11.4200   18.0320    0.8750 C.3   305  THR305      0.0379
    164  N         10.8350   17.3700    5.2580 N.am  306  TYR306     -0.1973
    165  CA        11.0590   17.1890    6.6830 C.3   306  TYR306      0.1639
    166  C         11.2560   15.7180    7.0060 C.2   306  TYR306      0.2290
    167  O         11.5160   15.3590    8.1530 O.2   306  TYR306     -0.2864
    168  CB         9.8690   17.7380    7.4690 C.3   306  TYR306      0.0560
    169  CG         8.5380   17.2100    6.9820 C.ar  306  TYR306     -0.0198
    170  CD1        8.0510   15.9880    7.4210 C.ar  306  TYR306     -0.0009
    171  CD2        7.7750   17.9290    6.0730 C.ar  306  TYR306     -0.0009
    172  CE1        6.8420   15.5000    6.9730 C.ar  306  TYR306      0.0417
    173  CE2        6.5640   17.4510    5.6220 C.ar  306  TYR306      0.0417
    174  CZ         6.1000   16.2350    6.0750 C.ar  306  TYR306      0.1957
    175  OH         4.8900   15.7530    5.6250 O.3   306  TYR306     -0.2866
@<TRIPOS>BOND
     1   148   149    1
     2   163   161    1
     3   146   145    2
     4   145   144    1
     5   143   144    1
     6   149   152    1
     7   149   150    1
     8   151   150    2
     9   152   153    1
    10   144   147    1
    11   150   157   am
    12   161   162    1
    13   161   158    1
    14   157   158    1
    15   158   159    1
    16   138   139    2
    17   138   137    1
    18   153   154    1
    19   136   137    1
    20   156   154   ar
    21   154   155   ar
    22   137   140    1
    23   159   160    2
    24   159   164   am
    25    51    49    1
    26    49    48    1
    27    43    42    1
    28    42    39    1
    29   164   165    1
    30    50    48    1
    31   173   171   ar
    32   173   174   ar
    33   175   174    1
    34    48    45    1
    35   140   141    1
    36   140   142    1
    37   171   169   ar
    38   174   172   ar
    39    40    41    2
    40    40    39    1
    41    39    38    1
    42     1     2    1
    43   165   166    1
    44   165   168    1
    45   172   170   ar
    46   169   170   ar
    47   169   168    1
    48     6     5    1
    49   166   167    2
    50    45    44    1
    51    45    46    1
    52    38    28   am
    53    47    46    2
    54     2     5    1
    55     2     3    1
    56    46    52   am
    57    28    29    2
    58    28    27    1
    59    66    67    1
    60    66    65    1
    61     3     4    2
    62    52    53    1
    63    67    68    1
    64    64    65    1
    65    64    61    1
    66    27    30    1
    67    27    26    1
    68    53    54    1
    69    53    56    1
    70    54    55    2
    71    54    60   am
    72    60    61    1
    73    30    31    1
    74    61    62    1
    75    26    20   am
    76    24    23    1
    77    21    20    2
    78    22    23    1
    79    22    19    1
    80    57    56    1
    81    57    59    1
    82    32    31   ar
    83    32    34   ar
    84    20    19    1
    85    56    58    1
    86    31    33   ar
    87    23    25    1
    88    62    63    2
    89    19    18    1
    90    34    36   ar
    91    76    74   ar
    92    33    35   ar
    93    18     9   am
    94    74    75   ar
    95    74    73    1
    96    36    35   ar
    97    36    37    1
    98    73    70    1
    99    70    69    1
   100    70    71    1
   101    80    79    2
   102    88    87    2
   103     9    10    2
   104     9     8    1
   105    77    71   am
   106    77    78    1
   107   134   135    1
   108   134   131    1
   109    71    72    2
   110    92    90    1
   111    79    78    1
   112    79    85   am
   113    87    86    1
   114     8    11    1
   115     8     7    1
   116    86    85    1
   117    86    89    1
   118    78    81    1
   119   131   132    1
   120   131   130    1
   121    11    12    1
   122   133   132    2
   123    81    82    1
   124    12    13    1
   125    84    82   am
   126    90    89    1
   127    91    89    1
   128    82    83    2
   129   130   126   am
   130   129   128    1
   131   126   127    2
   132   126   125    1
   133    13    14    1
   134   128   125    1
   135    14    15    2
   136   114   113    1
   137   114   115    1
   138   125   124    1
   139   113   106   am
   140    96    95    2
   141   124   119   am
   142   116   115    2
   143   115   117   am
   144    15    17    1
   145    15    16    1
   146    95    94    1
   147    95   104   am
   148   117   118    1
   149   106   105    1
   150   106   107    2
   151    97    94    1
   152    97    98    1
   153    93    94    1
   154   100    98   ar
   155   100   102   ar
   156   119   120    2
   157   119   118    1
   158   105   104    1
   159   105   108    1
   160    98    99   ar
   161   102   103   ar
   162   109   108    1
   163   109   110    1
   164   118   121    1
   165   111   110    1
   166   111   112    1
   167   121   122    1
   168   121   123    1
   169    99   101   ar
   170   103   101   ar
