@<TRIPOS>MOLECULE
tmp/2rc8A00.pdb
 91 88 0 0 0
SMALL
GASTEIGER

@<TRIPOS>ATOM
      1  N          7.4400   51.5510    6.1860 N.3    94  TYR94      -0.1241
      2  CA         7.4320   50.3200    6.9670 C.3    94  TYR94       0.1605
      3  C          6.6070   50.4600    8.2200 C.2    94  TYR94       0.2264
      4  O          5.7740   49.5830    8.5310 O.2    94  TYR94      -0.2867
      5  CB         8.8580   49.8670    7.3010 C.3    94  TYR94       0.0534
      6  CG         9.6360   49.3850    6.1020 C.ar   94  TYR94      -0.0201
      7  CD1        9.5060   48.0560    5.6660 C.ar   94  TYR94      -0.0009
      8  CD2       10.5290   50.2450    5.4120 C.ar   94  TYR94      -0.0009
      9  CE1       10.2160   47.5890    4.5620 C.ar   94  TYR94       0.0417
     10  CE2       11.2910   49.7510    4.3010 C.ar   94  TYR94       0.0417
     11  CZ        11.0650   48.4590    3.8980 C.ar   94  TYR94       0.1957
     12  OH        11.7960   47.9820    2.8270 O.3    94  TYR94      -0.2866
     13  N         10.6810   43.3000    2.9900 N.3   120  SER120     -0.1202
     14  CA        11.9150   43.3100    3.7960 C.3   120  SER120      0.2020
     15  C         11.6240   44.0280    5.1280 C.2   120  SER120      0.2619
     16  O         12.1090   45.1440    5.3620 O.2   120  SER120     -0.2717
     17  CB        13.0200   44.0590    3.0000 C.3   120  SER120      0.2103
     18  OG        12.5000   45.1760    2.3060 O.3   120  SER120     -0.2182
     19  N         10.8450   43.3790    5.9950 N.am  121  PHE121     -0.1961
     20  CA        10.2550   44.0070    7.1830 C.3   121  PHE121      0.1771
     21  C         11.0190   43.5970    8.4250 C.2   121  PHE121      0.2620
     22  O         11.0270   42.4370    8.8080 O.2   121  PHE121     -0.2715
     23  CB         8.8000   43.4790    7.2190 C.3   121  PHE121      0.0574
     24  CG         7.8440   44.1870    8.1620 C.ar  121  PHE121     -0.0200
     25  CD1        8.0630   45.4590    8.6710 C.ar  121  PHE121     -0.0042
     26  CD2        6.6500   43.5400    8.4710 C.ar  121  PHE121     -0.0042
     27  CE1        7.1090   46.1030    9.4890 C.ar  121  PHE121     -0.0003
     28  CE2        5.6950   44.1380    9.2710 C.ar  121  PHE121     -0.0003
     29  CZ         5.8970   45.4340    9.7820 C.ar  121  PHE121     -0.0000
     30  N         11.6450   44.5740    9.0630 N.am  122  SER122     -0.1950
     31  CA        12.4780   44.2590   10.2350 C.3   122  SER122      0.1924
     32  C         11.7160   43.9740   11.5200 C.2   122  SER122      0.2314
     33  O         10.7820   44.7110   11.9360 O.2   122  SER122     -0.2863
     34  CB        13.4040   45.4330   10.5290 C.3   122  SER122      0.2116
     35  OG        14.2710   45.6640    9.4420 O.3   122  SER122     -0.2180
     36  N          8.0500   47.0190   17.5320 N.3   127  ARG127     -0.1245
     37  CA         6.9800   46.4050   16.7210 C.3   127  ARG127      0.1563
     38  C          6.5260   45.0740   17.3310 C.2   127  ARG127      0.2260
     39  O          5.3350   44.7310   17.2550 O.2   127  ARG127     -0.2867
     40  CB         7.4550   46.1560   15.3030 C.3   127  ARG127      0.0307
     41  CG         7.7710   47.4900   14.5910 C.3   127  ARG127      0.0489
     42  CD         8.4620   47.2210   13.2830 C.3   127  ARG127      0.2205
     43  NE         8.6990   48.4560   12.5190 N.pl3 127  ARG127     -0.0865
     44  CZ         9.4180   48.4700   11.4070 C.cat 127  ARG127      0.5346
     45  NH1       10.0220   47.3900   10.9250 N.pl3 127  ARG127      0.1354
     46  NH2        9.5310   49.6210   10.7290 N.pl3 127  ARG127      0.1354
     47  N         11.2950   54.1550    9.1440 N.3   176  SER176     -0.1202
     48  CA        11.8920   52.8340    9.0440 C.3   176  SER176      0.2020
     49  C         12.4430   52.3630   10.4050 C.2   176  SER176      0.2619
     50  O         12.5760   53.1220   11.3520 O.2   176  SER176     -0.2717
     51  CB        13.0690   52.8840    8.0810 C.3   176  SER176      0.2103
     52  OG        14.1390   53.7160    8.5900 O.3   176  SER176     -0.2182
     53  N         12.7500   51.0680   10.4640 N.am  177  SER177     -0.1937
     54  CA        13.3980   50.5070   11.6420 C.3   177  SER177      0.2055
     55  C         14.7390   51.2170   11.8640 C.2   177  SER177      0.2642
     56  O         15.1150   51.4780   13.0160 O.2   177  SER177     -0.2714
     57  CB        13.5720   48.9820   11.4780 C.3   177  SER177      0.2130
     58  OG        13.9810   48.4410   12.7380 O.3   177  SER177     -0.2179
     59  N         15.4370   51.5680   10.7720 N.am  178  ALA178     -0.1977
     60  CA        16.7230   52.2590   10.8760 C.3   178  ALA178      0.1597
     61  C         16.5280   53.5860   11.5890 C.2   178  ALA178      0.2287
     62  O         17.3130   53.9570   12.4800 O.2   178  ALA178     -0.2864
     63  CB        17.3770   52.4410    9.4740 C.3   178  ALA178      0.0319
     64  N         20.9700   52.7810    6.1490 N.3   220  MET220     -0.1230
     65  CA        19.7890   51.9530    5.8710 C.3   220  MET220      0.1702
     66  C         20.2050   50.5030    6.0040 C.2   220  MET220      0.2592
     67  O         21.4110   50.2020    6.0940 O.2   220  MET220     -0.2718
     68  CB        19.2850   52.2460    4.4520 C.3   220  MET220      0.0401
     69  CG        17.9590   51.5930    4.0890 C.3   220  MET220      0.0596
     70  SD        16.6370   51.7930    5.3760 S.3   220  MET220     -0.1393
     71  CE        15.1980   51.3150    4.4290 C.3   220  MET220      0.0692
     72  N         19.2530   49.5890    5.9880 N.am  221  ASP221     -0.1974
     73  CA        19.5660   48.1600    6.1020 C.3   221  ASP221      0.1709
     74  C         20.7250   47.7870    5.1620 C.2   221  ASP221      0.2293
     75  O         20.6750   48.0380    3.9550 O.2   221  ASP221     -0.2864
     76  CB        18.3550   47.3020    5.6440 C.3   221  ASP221      0.1436
     77  CG        17.1310   47.5340    6.4650 C.2   221  ASP221      0.3671
     78  OD1       17.1130   48.3910    7.3910 O.co2 221  ASP221     -0.2456
     79  OD2       16.1520   46.8190    6.1450 O.co2 221  ASP221     -0.2456
     80  N         14.5010   39.8700    9.1240 N.3   249  TYR249     -0.1241
     81  CA        13.2820   40.1990    8.3910 C.3   249  TYR249      0.1605
     82  C         12.2810   39.0680    8.6190 C.2   249  TYR249      0.2264
     83  O         12.6370   37.8740    8.5420 O.2   249  TYR249     -0.2867
     84  CB        13.4910   40.2440    6.8840 C.3   249  TYR249      0.0534
     85  CG        14.3250   41.4100    6.3630 C.ar  249  TYR249     -0.0201
     86  CD1       14.4990   42.5910    7.0820 C.ar  249  TYR249     -0.0009
     87  CD2       14.9460   41.3120    5.1310 C.ar  249  TYR249     -0.0009
     88  CE1       15.2480   43.6810    6.5470 C.ar  249  TYR249      0.0417
     89  CE2       15.6720   42.3930    4.5700 C.ar  249  TYR249      0.0417
     90  CZ        15.8250   43.5340    5.3060 C.ar  249  TYR249      0.1957
     91  OH        16.5330   44.5700    4.7390 O.3   249  TYR249     -0.2866
@<TRIPOS>BOND
     1    18    17    1
     2    12    11    1
     3    13    14    1
     4    17    14    1
     5    14    15    1
     6    11    10   ar
     7    11     9   ar
     8    75    74    2
     9    69    68    1
    10    69    70    1
    11    10     8   ar
    12    71    70    1
    13    68    65    1
    14     9     7   ar
    15    89    87   ar
    16    89    90   ar
    17    91    90    1
    18    15    16    2
    19    15    19   am
    20    87    85   ar
    21    74    73    1
    22    90    88   ar
    23     8     6   ar
    24    76    73    1
    25    76    77    1
    26     7     6   ar
    27    65    66    1
    28    65    64    1
    29    72    66   am
    30    72    73    1
    31    19    20    1
    32    66    67    2
    33     6     5    1
    34    79    77   ar
    35     1     2    1
    36    85    84    1
    37    85    86   ar
    38    77    78   ar
    39    88    86   ar
    40    84    81    1
    41     2     5    1
    42     2     3    1
    43    20    23    1
    44    20    21    1
    45    23    24    1
    46    51    52    1
    47    51    48    1
    48    24    26   ar
    49    24    25   ar
    50     3     4    2
    51    81    82    1
    52    81    80    1
    53    21    22    2
    54    21    30   am
    55    26    28   ar
    56    83    82    2
    57    25    27   ar
    58    48    47    1
    59    48    49    1
    60    30    31    1
    61    28    29   ar
    62    35    34    1
    63    63    60    1
    64    27    29   ar
    65    31    34    1
    66    31    32    1
    67    49    53   am
    68    49    50    2
    69    53    54    1
    70    46    44    1
    71    59    60    1
    72    59    55   am
    73    60    61    1
    74    45    44    1
    75    44    43    2
    76    57    54    1
    77    57    58    1
    78    32    33    2
    79    61    62    2
    80    54    55    1
    81    55    56    2
    82    43    42    1
    83    42    41    1
    84    41    40    1
    85    40    37    1
    86    37    38    1
    87    37    36    1
    88    39    38    2
