@<TRIPOS>MOLECULE
tmp/2rc9A00.pdb
 99 95 0 0 0
SMALL
GASTEIGER

@<TRIPOS>ATOM
      1  N          7.1080    4.2820    6.5860 N.3    94  TYR94      -0.1241
      2  CA         7.1200    2.9930    7.2370 C.3    94  TYR94       0.1605
      3  C          6.2690    3.0010    8.5150 C.2    94  TYR94       0.2264
      4  O          5.4800    2.0860    8.7370 O.2    94  TYR94      -0.2867
      5  CB         8.5540    2.5670    7.5580 C.3    94  TYR94       0.0534
      6  CG         9.3610    2.2150    6.3330 C.ar   94  TYR94      -0.0201
      7  CD1        9.3450    0.9050    5.8130 C.ar   94  TYR94      -0.0009
      8  CD2       10.1130    3.1970    5.6590 C.ar   94  TYR94      -0.0009
      9  CE1       10.0960    0.5810    4.6500 C.ar   94  TYR94       0.0417
     10  CE2       10.8840    2.8570    4.5050 C.ar   94  TYR94       0.0417
     11  CZ        10.8690    1.5400    4.0360 C.ar   94  TYR94       0.1957
     12  OH        11.5950    1.1790    2.8970 O.3    94  TYR94      -0.2866
     13  N         10.5200   -3.4530    2.5900 N.3   120  SER120     -0.1202
     14  CA        11.7540   -3.4510    3.3930 C.3   120  SER120      0.2020
     15  C         11.4730   -2.9100    4.7890 C.2   120  SER120      0.2619
     16  O         11.9490   -1.8220    5.1780 O.2   120  SER120     -0.2717
     17  CB        12.8190   -2.6170    2.6730 C.3   120  SER120      0.2103
     18  OG        12.2390   -1.4220    2.1050 O.3   120  SER120     -0.2182
     19  N         10.7060   -3.6910    5.5560 N.am  121  PHE121     -0.1961
     20  CA        10.0380   -3.2220    6.7870 C.3   121  PHE121      0.1771
     21  C         10.8110   -3.7630    7.9710 C.2   121  PHE121      0.2620
     22  O         10.8610   -4.9820    8.1520 O.2   121  PHE121     -0.2715
     23  CB         8.6340   -3.8510    6.8310 C.3   121  PHE121      0.0574
     24  CG         7.6510   -3.2020    7.8110 C.ar  121  PHE121     -0.0200
     25  CD1        7.9060   -1.9680    8.4090 C.ar  121  PHE121     -0.0042
     26  CD2        6.4260   -3.8520    8.0850 C.ar  121  PHE121     -0.0042
     27  CE1        6.9540   -1.3750    9.2830 C.ar  121  PHE121     -0.0003
     28  CE2        5.4700   -3.2740    8.9430 C.ar  121  PHE121     -0.0003
     29  CZ         5.7450   -2.0360    9.5650 C.ar  121  PHE121     -0.0000
     30  N         11.4220   -2.8920    8.7590 N.am  122  SER122     -0.1950
     31  CA        12.2880   -3.3280    9.8590 C.3   122  SER122      0.1924
     32  C         11.5240   -3.8020   11.1120 C.2   122  SER122      0.2314
     33  O         10.5550   -3.1760   11.5530 O.2   122  SER122     -0.2863
     34  CB        13.2640   -2.2230   10.2940 C.3   122  SER122      0.2116
     35  OG        14.1200   -1.8620    9.2260 O.3   122  SER122     -0.2180
     36  N          7.7940   -1.3200   17.3720 N.3   127  ARG127     -0.1245
     37  CA         6.7470   -1.9340   16.5370 C.3   127  ARG127      0.1563
     38  C          6.3470   -3.3170   17.0070 C.2   127  ARG127      0.2260
     39  O          5.1710   -3.7230   16.8990 O.2   127  ARG127     -0.2867
     40  CB         7.2010   -1.9770   15.0740 C.3   127  ARG127      0.0307
     41  CG         7.4790   -0.6120   14.4930 C.3   127  ARG127      0.0489
     42  CD         8.2630   -0.7430   13.2020 C.3   127  ARG127      0.2205
     43  NE         8.4530    0.5700   12.5700 N.pl3 127  ARG127     -0.0865
     44  CZ         9.1310    0.7360   11.4400 C.cat 127  ARG127      0.5346
     45  NH1        9.7360   -0.3230   10.8960 N.pl3 127  ARG127      0.1354
     46  NH2        9.2230    1.9390   10.8610 N.pl3 127  ARG127      0.1354
     47  N         10.8360    6.4840   10.3020 N.3   176  SER176     -0.1202
     48  CA        11.3890    5.1650    9.9890 C.3   176  SER176      0.2020
     49  C         12.0550    4.6070   11.2490 C.2   176  SER176      0.2619
     50  O         12.1970    5.3270   12.2610 O.2   176  SER176     -0.2717
     51  CB        12.4200    5.2770    8.8660 C.3   176  SER176      0.2103
     52  OG        13.5340    6.0160    9.3180 O.3   176  SER176     -0.2182
     53  N         12.5210    3.3630   11.1720 N.am  177  SER177     -0.1937
     54  CA        13.1850    2.7340   12.3040 C.3   177  SER177      0.2055
     55  C         14.5690    3.3590   12.5160 C.2   177  SER177      0.2642
     56  O         15.0970    3.3280   13.6310 O.2   177  SER177     -0.2714
     57  CB        13.3200    1.2200   12.0880 C.3   177  SER177      0.2130
     58  OG        13.8640    1.0060   10.8030 O.3   177  SER177     -0.2179
     59  N         15.1530    3.9230   11.4550 N.am  178  ALA178     -0.1977
     60  CA        16.4420    4.6500   11.5830 C.3   178  ALA178      0.1597
     61  C         16.2630    5.8890   12.4720 C.2   178  ALA178      0.2287
     62  O         17.0680    6.1800   13.3500 O.2   178  ALA178     -0.2864
     63  CB        16.9700    5.0610   10.1980 C.3   178  ALA178      0.0319
     64  N         20.7890    5.5140    6.8250 N.3   220  MET220     -0.1230
     65  CA        19.6380    4.6910    6.4110 C.3   220  MET220      0.1702
     66  C         20.0750    3.2310    6.3750 C.2   220  MET220      0.2592
     67  O         21.2640    2.9400    6.5530 O.2   220  MET220     -0.2718
     68  CB        19.1070    5.1740    5.0450 C.3   220  MET220      0.0401
     69  CG        17.7250    4.6800    4.6320 C.3   220  MET220      0.0596
     70  SD        16.5200    4.5720    5.9810 S.3   220  MET220     -0.1393
     71  CE        15.1130    4.0540    5.0350 C.3   220  MET220      0.0692
     72  N         19.1250    2.3140    6.1980 N.am  221  ASP221     -0.1974
     73  CA        19.4330    0.8720    6.1100 C.3   221  ASP221      0.1709
     74  C         20.5700    0.6420    5.1360 C.2   221  ASP221      0.2293
     75  O         20.4740    1.0560    3.9720 O.2   221  ASP221     -0.2864
     76  CB        18.2170    0.1120    5.5630 C.3   221  ASP221      0.1436
     77  CG        17.0600    0.1300    6.5170 C.2   221  ASP221      0.3671
     78  OD1       17.2620    0.6830    7.6460 O.co2 221  ASP221     -0.2456
     79  OD2       15.9630   -0.3960    6.1470 O.co2 221  ASP221     -0.2456
     80  N         19.8180   -0.8260    1.7290 N.3   224  LEU224     -0.1245
     81  CA        19.2840    0.0860    0.7280 C.3   224  LEU224      0.1561
     82  C         20.4080    0.9500    0.1700 C.2   224  LEU224      0.2260
     83  O         20.4900    1.1580   -1.0350 O.2   224  LEU224     -0.2867
     84  CB        18.1830    0.9640    1.3350 C.3   224  LEU224      0.0270
     85  CG        16.9750    0.2500    1.9310 C.3   224  LEU224      0.0019
     86  CD1       15.9270    1.1940    2.5400 C.3   224  LEU224      0.0001
     87  CD2       16.3110   -0.7600    0.9490 C.3   224  LEU224      0.0001
     88  N         14.3470   -7.5940    8.3740 N.3   249  TYR249     -0.1241
     89  CA        13.1080   -7.1800    7.7000 C.3   249  TYR249      0.1605
     90  C         12.1130   -8.3270    7.8060 C.2   249  TYR249      0.2264
     91  O         12.4600   -9.4770    7.5510 O.2   249  TYR249     -0.2867
     92  CB        13.3500   -6.9910    6.1960 C.3   249  TYR249      0.0534
     93  CG        14.1640   -5.7760    5.7820 C.ar  249  TYR249     -0.0201
     94  CD1       14.3890   -4.7020    6.6610 C.ar  249  TYR249     -0.0009
     95  CD2       14.6820   -5.6970    4.4770 C.ar  249  TYR249     -0.0009
     96  CE1       15.1170   -3.5370    6.2260 C.ar  249  TYR249      0.0417
     97  CE2       15.3890   -4.5870    4.0410 C.ar  249  TYR249      0.0417
     98  CZ        15.6050   -3.5170    4.8960 C.ar  249  TYR249      0.1957
     99  OH        16.3310   -2.4600    4.4140 O.3   249  TYR249     -0.2866
@<TRIPOS>BOND
     1    83    82    2
     2    82    81    1
     3    81    84    1
     4    81    80    1
     5    87    85    1
     6    84    85    1
     7    85    86    1
     8    18    17    1
     9    13    14    1
    10    17    14    1
    11    12    11    1
    12    14    15    1
    13    75    74    2
    14    11    10   ar
    15    11     9   ar
    16    97    95   ar
    17    97    98   ar
    18    99    98    1
    19    95    93   ar
    20    10     8   ar
    21    69    68    1
    22    69    70    1
    23     9     7   ar
    24    15    16    2
    25    15    19   am
    26    98    96   ar
    27    71    70    1
    28    68    65    1
    29    74    73    1
    30    19    20    1
    31    76    73    1
    32    76    77    1
    33     8     6   ar
    34    93    92    1
    35    93    94   ar
    36     7     6   ar
    37    73    72    1
    38    79    77   ar
    39    92    89    1
    40    72    66   am
    41    96    94   ar
    42     6     5    1
    43    66    65    1
    44    66    67    2
    45    65    64    1
    46    77    78   ar
    47     1     2    1
    48    20    23    1
    49    20    21    1
    50    23    24    1
    51     2     5    1
    52     2     3    1
    53    91    90    2
    54    89    90    1
    55    89    88    1
    56    24    26   ar
    57    24    25   ar
    58    21    22    2
    59    21    30   am
    60    26    28   ar
    61    25    27   ar
    62     3     4    2
    63    30    31    1
    64    51    52    1
    65    51    48    1
    66    28    29   ar
    67    35    34    1
    68    27    29   ar
    69    31    34    1
    70    31    32    1
    71    48    47    1
    72    48    49    1
    73    63    60    1
    74    58    57    1
    75    46    44    1
    76    45    44    1
    77    32    33    2
    78    53    49   am
    79    53    54    1
    80    49    50    2
    81    44    43    2
    82    59    60    1
    83    59    55   am
    84    60    61    1
    85    57    54    1
    86    54    55    1
    87    61    62    2
    88    55    56    2
    89    43    42    1
    90    42    41    1
    91    41    40    1
    92    40    37    1
    93    37    38    1
    94    37    36    1
    95    39    38    2
