@<TRIPOS>MOLECULE
tmp/2rcbA00.pdb
 80 75 0 0 0
SMALL
GASTEIGER

@<TRIPOS>ATOM
      1  N         56.8870   22.5840   16.9210 N.3    92  TYR92      -0.1241
      2  CA        56.9790   23.9310   17.5020 C.3    92  TYR92       0.1605
      3  C         57.9510   24.8150   16.7320 C.2    92  TYR92       0.2264
      4  O         57.6280   25.9820   16.4270 O.2    92  TYR92      -0.2867
      5  CB        57.3830   23.8550   18.9740 C.3    92  TYR92       0.0534
      6  CG        56.2930   23.2510   19.8230 C.ar   92  TYR92      -0.0201
      7  CD1       55.2790   24.0790   20.3200 C.ar   92  TYR92      -0.0009
      8  CD2       56.2870   21.8760   20.1510 C.ar   92  TYR92      -0.0009
      9  CE1       54.2450   23.5370   21.1520 C.ar   92  TYR92       0.0417
     10  CE2       55.2540   21.3250   20.9900 C.ar   92  TYR92       0.0417
     11  CZ        54.2840   22.1810   21.4950 C.ar   92  TYR92       0.1957
     12  OH        53.2850   21.6660   22.2940 O.3    92  TYR92      -0.2866
     13  N         51.1040   25.7710   23.6380 N.3   118  SER118     -0.1217
     14  CA        52.1000   25.5990   24.6930 C.3   118  SER118      0.1889
     15  C         53.4790   25.8800   24.0880 C.2   118  SER118      0.2288
     16  O         54.2850   24.9630   23.9790 O.2   118  SER118     -0.2866
     17  CB        52.0290   24.1430   25.2090 C.3   118  SER118      0.2089
     18  OG        51.7840   23.2370   24.1550 O.3   118  SER118     -0.2183
     19  N         57.1040   27.5120   23.9150 N.3   120  SER120     -0.1217
     20  CA        58.1550   27.9690   24.8300 C.3   120  SER120      0.1889
     21  C         58.9770   29.1020   24.2910 C.2   120  SER120      0.2288
     22  O         59.4190   29.1020   23.1330 O.2   120  SER120     -0.2866
     23  CB        59.1180   26.8140   25.1490 C.3   120  SER120      0.2089
     24  OG        58.4480   25.7600   25.8060 O.3   120  SER120     -0.2183
     25  N         64.7770   31.4570   19.6400 N.3   125  ARG125     -0.1245
     26  CA        63.5430   31.8670   19.0330 C.3   125  ARG125      0.1563
     27  C         63.3050   33.3580   19.2130 C.2   125  ARG125      0.2260
     28  O         62.8640   34.0110   18.2880 O.2   125  ARG125     -0.2867
     29  CB        62.3890   31.0740   19.6540 C.3   125  ARG125      0.0307
     30  CG        62.3380   29.6600   19.1950 C.3   125  ARG125      0.0489
     31  CD        61.2820   28.9030   19.9720 C.3   125  ARG125      0.2205
     32  NE        61.3020   27.4860   19.6160 N.pl3 125  ARG125     -0.0865
     33  CZ        60.4700   26.5780   20.1710 C.cat 125  ARG125      0.5346
     34  NH1       59.5990   26.9330   21.1470 N.pl3 125  ARG125      0.1354
     35  NH2       60.5250   25.2990   19.7940 N.pl3 125  ARG125      0.1354
     36  N         61.3580   20.5110   19.1240 N.3   174  SER174     -0.1202
     37  CA        60.8100   21.1410   20.3410 C.3   174  SER174      0.2020
     38  C         61.8800   21.9620   21.0560 C.2   174  SER174      0.2619
     39  O         63.0790   21.8520   20.7670 O.2   174  SER174     -0.2717
     40  CB        60.3200   20.0310   21.2880 C.3   174  SER174      0.2103
     41  OG        61.4520   19.2720   21.7630 O.3   174  SER174     -0.2182
     42  N         61.4590   22.7720   22.0200 N.am  175  SER175     -0.1937
     43  CA        62.4120   23.5530   22.8310 C.3   175  SER175      0.2055
     44  C         63.1770   22.6120   23.7390 C.2   175  SER175      0.2642
     45  O         64.3630   22.8640   24.0570 O.2   175  SER175     -0.2714
     46  CB        61.6600   24.6050   23.6230 C.3   175  SER175      0.2130
     47  OG        62.5810   25.5250   24.2170 O.3   175  SER175     -0.2179
     48  N         62.5590   21.4970   24.1260 N.am  176  ALA176     -0.1977
     49  CA        63.2610   20.4900   24.9030 C.3   176  ALA176      0.1597
     50  C         64.4750   19.9780   24.1200 C.2   176  ALA176      0.2287
     51  O         65.5990   19.9060   24.6510 O.2   176  ALA176     -0.2864
     52  CB        62.3290   19.3760   25.2070 C.3   176  ALA176      0.0319
     53  N         60.5400   15.8650   28.0520 N.3   218  MET218     -0.1230
     54  CA        59.6340   16.8480   27.4380 C.3   218  MET218      0.1702
     55  C         59.1680   17.8140   28.5330 C.2   218  MET218      0.2592
     56  O         59.3940   17.5490   29.7120 O.2   218  MET218     -0.2718
     57  CB        58.4420   16.1350   26.7680 C.3   218  MET218      0.0401
     58  CG        57.5360   16.9660   25.8820 C.3   218  MET218      0.0596
     59  SD        58.4290   18.0370   24.6960 S.3   218  MET218     -0.1393
     60  CE        57.0540   18.5710   23.6460 C.3   218  MET218      0.0692
     61  N         58.5160   18.9120   28.1340 N.am  219  ASP219     -0.1974
     62  CA        57.9880   19.8800   29.1060 C.3   219  ASP219      0.1709
     63  C         57.2570   19.0960   30.2300 C.2   219  ASP219      0.2293
     64  O         56.4040   18.2480   29.9360 O.2   219  ASP219     -0.2864
     65  CB        56.9130   20.7160   28.4460 C.3   219  ASP219      0.1436
     66  CG        57.4200   21.5690   27.3100 C.2   219  ASP219      0.3671
     67  OD1       58.5640   21.3870   26.8500 O.co2 219  ASP219     -0.2456
     68  OD2       56.6130   22.3950   26.8590 O.co2 219  ASP219     -0.2456
     69  N         55.8580   29.8310   28.6640 N.3   247  TYR247     -0.1241
     70  CA        55.0820   29.7580   27.4080 C.3   247  TYR247      0.1605
     71  C         54.5950   31.1540   27.0940 C.2   247  TYR247      0.2264
     72  O         54.0710   31.8640   27.9800 O.2   247  TYR247     -0.2867
     73  CB        53.8380   28.8880   27.5630 C.3   247  TYR247      0.0534
     74  CG        54.0710   27.4180   27.7340 C.ar  247  TYR247     -0.0201
     75  CD1       55.2980   26.8070   27.4320 C.ar  247  TYR247     -0.0009
     76  CD2       53.0050   26.6080   28.1200 C.ar  247  TYR247     -0.0009
     77  CE1       55.4500   25.4140   27.5780 C.ar  247  TYR247      0.0417
     78  CE2       53.1640   25.2490   28.2610 C.ar  247  TYR247      0.0417
     79  CZ        54.3660   24.6540   27.9450 C.ar  247  TYR247      0.1957
     80  OH        54.4600   23.3080   28.0790 O.3   247  TYR247     -0.2866
@<TRIPOS>BOND
     1     4     3    2
     2     3     2    1
     3     1     2    1
     4     2     5    1
     5    28    27    2
     6     5     6    1
     7    26    27    1
     8    26    25    1
     9    26    29    1
    10    36    37    1
    11    30    29    1
    12    30    31    1
    13    32    31    1
    14    32    33    2
    15    35    33    1
    16     6     8   ar
    17     6     7   ar
    18     8    10   ar
    19    33    34    1
    20     7     9   ar
    21    37    38    1
    22    37    40    1
    23    39    38    2
    24    10    11   ar
    25    38    42   am
    26     9    11   ar
    27    40    41    1
    28    11    12    1
    29    42    43    1
    30    43    46    1
    31    43    44    1
    32    22    21    2
    33    46    47    1
    34    13    14    1
    35    60    59    1
    36    44    45    2
    37    44    48   am
    38    19    20    1
    39    16    15    2
    40    15    14    1
    41    50    51    2
    42    50    49    1
    43    48    49    1
    44    18    17    1
    45    21    20    1
    46    14    17    1
    47    59    58    1
    48    20    23    1
    49    49    52    1
    50    23    24    1
    51    58    57    1
    52    57    54    1
    53    67    66   ar
    54    68    66   ar
    55    71    70    1
    56    71    72    2
    57    66    65    1
    58    70    73    1
    59    70    69    1
    60    75    77   ar
    61    75    74   ar
    62    54    53    1
    63    54    55    1
    64    73    74    1
    65    77    79   ar
    66    74    76   ar
    67    79    80    1
    68    79    78   ar
    69    76    78   ar
    70    61    55   am
    71    61    62    1
    72    65    62    1
    73    55    56    2
    74    62    63    1
    75    64    63    2
