@<TRIPOS>MOLECULE
tmp/2rccA00.pdb
 98 96 0 0 0
SMALL
GASTEIGER

@<TRIPOS>ATOM
      1  N       -129.7410  -34.0000   46.9220 N.3    73  GLU73      -0.1245
      2  CA      -130.5980  -34.6650   47.9040 C.3    73  GLU73       0.1567
      3  C       -131.8900  -35.2280   47.3230 C.2    73  GLU73       0.2260
      4  O       -132.2480  -36.3640   47.6350 O.2    73  GLU73      -0.2867
      5  CB      -130.8840  -33.7490   49.1120 C.3    73  GLU73       0.0388
      6  CG      -129.6920  -33.5180   50.0240 C.3    73  GLU73       0.1160
      7  CD      -129.1770  -34.8080   50.6730 C.2    73  GLU73       0.3649
      8  OE1     -130.0190  -35.6420   51.1060 O.co2  73  GLU73      -0.2457
      9  OE2     -127.9300  -34.9800   50.7340 O.co2  73  GLU73      -0.2457
     10  N       -130.9970  -38.3170   45.1860 N.3    76  LYS76      -0.1231
     11  CA      -130.7110  -39.4890   46.0490 C.3    76  LYS76       0.1693
     12  C       -131.9590  -40.0910   46.6190 C.2    76  LYS76       0.2591
     13  O       -132.1150  -41.3300   46.6110 O.2    76  LYS76      -0.2718
     14  CB      -129.7260  -39.1160   47.1790 C.3    76  LYS76       0.0285
     15  CG      -128.2920  -38.9570   46.6680 C.3    76  LYS76       0.0035
     16  CD      -127.3840  -38.0760   47.5250 C.3    76  LYS76       0.0206
     17  CE      -127.1760  -38.5910   48.9220 C.3    76  LYS76       0.1093
     18  NZ      -126.1710  -37.7230   49.6090 N.3    76  LYS76      -0.1314
     19  N       -132.8500  -39.2170   47.0990 N.am   77  LYS77      -0.1980
     20  CA      -134.1210  -39.6480   47.6800 C.3    77  LYS77       0.1596
     21  C       -135.0050  -40.3450   46.6620 C.2    77  LYS77       0.2287
     22  O       -135.5340  -41.4140   46.9520 O.2    77  LYS77      -0.2864
     23  CB      -134.8880  -38.4900   48.3030 C.3    77  LYS77       0.0298
     24  CG      -134.3300  -38.0010   49.5930 C.3    77  LYS77       0.0038
     25  CD      -134.9110  -36.6700   49.9790 C.3    77  LYS77       0.0206
     26  CE      -134.2250  -36.1040   51.2210 C.3    77  LYS77       0.1093
     27  NZ      -134.5220  -36.8450   52.4710 N.3    77  LYS77      -0.1314
     28  N       -127.7570  -46.0150   53.9510 N.3   136  GLU136     -0.1231
     29  CA      -128.3790  -44.9620   54.7220 C.3   136  GLU136      0.1699
     30  C       -129.6790  -44.4640   54.0560 C.2   136  GLU136      0.2592
     31  O       -130.6950  -44.2690   54.7330 O.2   136  GLU136     -0.2718
     32  CB      -127.3850  -43.8170   54.8960 C.3   136  GLU136      0.0402
     33  CG      -127.9310  -42.6330   55.6790 C.3   136  GLU136      0.1161
     34  CD      -126.8440  -41.6840   56.1880 C.2   136  GLU136      0.3649
     35  OE1     -125.7130  -41.7120   55.6420 O.co2 136  GLU136     -0.2457
     36  OE2     -127.1280  -40.9190   57.1430 O.co2 136  GLU136     -0.2457
     37  N       -129.6250  -44.2630   52.7330 N.am  137  ILE137     -0.1980
     38  CA      -130.7850  -43.8300   51.9570 C.3   137  ILE137      0.1595
     39  C       -131.9160  -44.8480   52.1790 C.2   137  ILE137      0.2287
     40  O       -133.0530  -44.4660   52.4840 O.2   137  ILE137     -0.2864
     41  CB      -130.4770  -43.7000   50.4280 C.3   137  ILE137      0.0276
     42  CG1     -129.5240  -42.5230   50.1150 C.3   137  ILE137      0.0022
     43  CG2     -131.7740  -43.5180   49.6370 C.3   137  ILE137      0.0022
     44  CD1     -128.9060  -42.5440   48.6800 C.3   137  ILE137      0.0001
     45  N       -133.3920  -44.7100   55.7470 N.3   140  TYR140     -0.1227
     46  CA      -134.3470  -43.6040   55.8760 C.3   140  TYR140      0.1736
     47  C       -135.6860  -43.9340   55.2450 C.2   140  TYR140      0.2595
     48  O       -136.7210  -43.6810   55.8560 O.2   140  TYR140     -0.2718
     49  CB      -133.8150  -42.3050   55.2990 C.3   140  TYR140      0.0548
     50  CG      -132.8550  -41.6010   56.2190 C.ar  140  TYR140     -0.0200
     51  CD1     -133.3040  -41.0530   57.4220 C.ar  140  TYR140     -0.0009
     52  CD2     -131.5100  -41.4400   55.8830 C.ar  140  TYR140     -0.0009
     53  CE1     -132.4480  -40.3940   58.2700 C.ar  140  TYR140      0.0417
     54  CE2     -130.6410  -40.7730   56.7380 C.ar  140  TYR140      0.0417
     55  CZ      -131.1210  -40.2570   57.9250 C.ar  140  TYR140      0.1957
     56  OH      -130.2730  -39.6010   58.7780 O.3   140  TYR140     -0.2866
     57  N       -135.6760  -44.5000   54.0410 N.am  141  TRP141     -0.1976
     58  CA      -136.9430  -44.9010   53.4260 C.3   141  TRP141      0.1640
     59  C       -137.6360  -46.0300   54.1890 C.2   141  TRP141      0.2290
     60  O       -138.8540  -46.0240   54.2800 O.2   141  TRP141     -0.2864
     61  CB      -136.7920  -45.2800   51.9640 C.3   141  TRP141      0.0576
     62  CG      -136.7040  -44.1050   51.0660 C.ar  141  TRP141      0.0006
     63  CD1     -135.6720  -43.7610   50.2740 C.ar  141  TRP141      0.0946
     64  CD2     -137.6980  -43.0920   50.9030 C.ar  141  TRP141      0.0152
     65  NE1     -135.9610  -42.6000   49.6010 N.ar  141  TRP141     -0.2442
     66  CE2     -137.2040  -42.1710   49.9740 C.ar  141  TRP141      0.0810
     67  CE3     -138.9660  -42.8830   51.4520 C.ar  141  TRP141      0.0012
     68  CZ2     -137.9310  -41.0590   49.5740 C.ar  141  TRP141      0.0191
     69  CZ3     -139.6970  -41.7900   51.0370 C.ar  141  TRP141      0.0001
     70  CH2     -139.1700  -40.8880   50.1240 C.ar  141  TRP141      0.0015
     71  N       -139.7390  -44.5340   56.8170 N.3   144  ASP144     -0.1239
     72  CA      -140.5090  -43.3590   56.4090 C.3   144  ASP144      0.1674
     73  C       -142.0210  -43.6380   56.5130 C.2   144  ASP144      0.2266
     74  O       -142.5320  -44.6220   55.9660 O.2   144  ASP144     -0.2867
     75  CB      -140.1090  -42.9020   55.0060 C.3   144  ASP144      0.1410
     76  CG      -140.7430  -41.5890   54.6290 C.2   144  ASP144      0.3668
     77  OD1     -141.9160  -41.5960   54.2080 O.co2 144  ASP144     -0.2456
     78  OD2     -140.0700  -40.5470   54.7380 O.co2 144  ASP144     -0.2456
     79  N       -143.7160  -33.5260   49.4410 N.3   259  TYR259     -0.1227
     80  CA      -142.8210  -34.0280   50.4730 C.3   259  TYR259      0.1736
     81  C       -141.3550  -34.0250   50.0590 C.2   259  TYR259      0.2595
     82  O       -140.4910  -33.6330   50.8260 O.2   259  TYR259     -0.2718
     83  CB      -143.2700  -35.4570   50.7780 C.3   259  TYR259      0.0548
     84  CG      -142.5620  -36.2140   51.8660 C.ar  259  TYR259     -0.0200
     85  CD1     -142.4430  -35.6750   53.1320 C.ar  259  TYR259     -0.0009
     86  CD2     -142.1430  -37.5350   51.6660 C.ar  259  TYR259     -0.0009
     87  CE1     -141.8480  -36.3780   54.1580 C.ar  259  TYR259      0.0417
     88  CE2     -141.5610  -38.2570   52.6880 C.ar  259  TYR259      0.0417
     89  CZ      -141.4040  -37.6580   53.9370 C.ar  259  TYR259      0.1957
     90  OH      -140.8270  -38.3360   54.9840 O.3   259  TYR259     -0.2866
     91  N       -141.0870  -34.4590   48.8410 N.am  260  ILE260     -0.1980
     92  CA      -139.7040  -34.6110   48.3490 C.3   260  ILE260      0.1595
     93  C       -139.1320  -33.4540   47.5410 C.2   260  ILE260      0.2287
     94  O       -137.9410  -33.1730   47.6490 O.2   260  ILE260     -0.2864
     95  CB      -139.5780  -35.9070   47.4930 C.3   260  ILE260      0.0276
     96  CG1     -139.9920  -37.1090   48.3140 C.3   260  ILE260      0.0022
     97  CG2     -138.1310  -36.1360   46.9850 C.3   260  ILE260      0.0022
     98  CD1     -139.5250  -38.4180   47.6850 C.3   260  ILE260      0.0001
@<TRIPOS>BOND
     1    10    11    1
     2    11    12    1
     3    11    14    1
     4    13    12    2
     5    12    19   am
     6    21    22    2
     7    21    20    1
     8    15    14    1
     9    15    16    1
    10     1     2    1
    11    97    95    1
    12    19    20    1
    13     3     4    2
    14     3     2    1
    15    95    96    1
    16    95    92    1
    17    16    17    1
    18    93    94    2
    19    93    92    1
    20    20    23    1
    21    98    96    1
    22     2     5    1
    23    23    24    1
    24    92    91    1
    25    44    42    1
    26    91    81   am
    27    17    18    1
    28     5     6    1
    29    79    80    1
    30    68    66   ar
    31    68    70   ar
    32    24    25    1
    33    65    66   ar
    34    65    63   ar
    35    43    41    1
    36    66    64   ar
    37    25    26    1
    38     6     7    1
    39    81    80    1
    40    81    82    2
    41    42    41    1
    42    70    69   ar
    43    63    62   ar
    44    41    38    1
    45    80    83    1
    46     7     9   ar
    47     7     8   ar
    48    83    84    1
    49    64    62   ar
    50    64    67   ar
    51    69    67   ar
    52    62    61    1
    53    26    27    1
    54    86    84   ar
    55    86    88   ar
    56    84    85   ar
    57    38    39    1
    58    38    37    1
    59    61    58    1
    60    39    40    2
    61    88    89   ar
    62    37    30   am
    63    85    87   ar
    64    58    57    1
    65    58    59    1
    66    89    87   ar
    67    89    90    1
    68    28    29    1
    69    57    47   am
    70    30    29    1
    71    30    31    2
    72    59    60    2
    73    77    76   ar
    74    76    78   ar
    75    76    75    1
    76    29    32    1
    77    32    33    1
    78    75    72    1
    79    47    48    2
    80    47    46    1
    81    49    46    1
    82    49    50    1
    83    35    34   ar
    84    33    34    1
    85    45    46    1
    86    52    50   ar
    87    52    54   ar
    88    74    73    2
    89    34    36   ar
    90    50    51   ar
    91    72    73    1
    92    72    71    1
    93    54    55   ar
    94    51    53   ar
    95    55    53   ar
    96    55    56    1
