@<TRIPOS>MOLECULE
tmp/2rccB00.pdb
 125 119 0 0 0
SMALL
GASTEIGER

@<TRIPOS>ATOM
      1  N       -132.4350  -80.9310   24.2780 N.3   150  TYR150     -0.1241
      2  CA      -131.1240  -81.3590   23.7840 C.3   150  TYR150      0.1605
      3  C       -131.2150  -82.4730   22.7620 C.2   150  TYR150      0.2264
      4  O       -130.4280  -82.5020   21.8260 O.2   150  TYR150     -0.2867
      5  CB      -130.1530  -81.7010   24.9350 C.3   150  TYR150      0.0534
      6  CG      -129.5150  -80.4720   25.5200 C.ar  150  TYR150     -0.0201
      7  CD1     -130.2310  -79.6140   26.3460 C.ar  150  TYR150     -0.0009
      8  CD2     -128.2220  -80.1190   25.1860 C.ar  150  TYR150     -0.0009
      9  CE1     -129.6530  -78.4490   26.8560 C.ar  150  TYR150      0.0417
     10  CE2     -127.6380  -78.9640   25.6900 C.ar  150  TYR150      0.0417
     11  CZ      -128.3600  -78.1380   26.5420 C.ar  150  TYR150      0.1957
     12  OH      -127.7590  -77.0080   27.0490 O.3   150  TYR150     -0.2866
     13  N       -128.6870  -73.8610   28.0980 N.3   178  GLN178     -0.1245
     14  CA      -127.5600  -74.2400   28.9560 C.3   178  GLN178      0.1566
     15  C       -127.6170  -73.5530   30.3190 C.2   178  GLN178      0.2260
     16  O       -127.4470  -74.1920   31.3570 O.2   178  GLN178     -0.2867
     17  CB      -126.2450  -73.9240   28.2430 C.3   178  GLN178      0.0367
     18  CG      -125.0110  -74.3840   28.9900 C.3   178  GLN178      0.0905
     19  CD      -123.7290  -74.0590   28.2410 C.2   178  GLN178      0.2608
     20  OE1     -123.6160  -73.0170   27.5780 O.2   178  GLN178     -0.2717
     21  NE2     -122.7470  -74.9410   28.3560 N.am  178  GLN178     -0.0878
     22  N       -130.7040  -74.7490   32.5840 N.3   181  VAL181     -0.1231
     23  CA      -130.3690  -76.0060   33.2450 C.3   181  VAL181      0.1692
     24  C       -129.4250  -75.7060   34.4130 C.2   181  VAL181      0.2592
     25  O       -129.6250  -76.2280   35.4880 O.2   181  VAL181     -0.2718
     26  CB      -129.7580  -77.0530   32.2710 C.3   181  VAL181      0.0266
     27  CG1     -129.2100  -78.2250   33.0480 C.3   181  VAL181      0.0020
     28  CG2     -130.7800  -77.4990   31.2760 C.3   181  VAL181      0.0020
     29  N       -128.4300  -74.8430   34.1960 N.am  182  TYR182     -0.1976
     30  CA      -127.5490  -74.3720   35.2830 C.3   182  TYR182      0.1639
     31  C       -128.3680  -73.7780   36.4280 C.2   182  TYR182      0.2290
     32  O       -128.1710  -74.1560   37.5620 O.2   182  TYR182     -0.2864
     33  CB      -126.5240  -73.3610   34.7440 C.3   182  TYR182      0.0560
     34  CG      -125.5970  -72.7270   35.7660 C.ar  182  TYR182     -0.0198
     35  CD1     -124.5100  -73.4260   36.2990 C.ar  182  TYR182     -0.0009
     36  CD2     -125.7740  -71.3920   36.1560 C.ar  182  TYR182     -0.0009
     37  CE1     -123.6520  -72.8260   37.2160 C.ar  182  TYR182      0.0417
     38  CE2     -124.9350  -70.8010   37.0550 C.ar  182  TYR182      0.0417
     39  CZ      -123.8740  -71.5080   37.5710 C.ar  182  TYR182      0.1957
     40  OH      -123.0670  -70.8650   38.4660 O.3   182  TYR182     -0.2866
     41  N       -127.0360  -91.4070   23.2050 N.3   239  TYR239     -0.1241
     42  CA      -126.9580  -89.9710   23.4680 C.3   239  TYR239      0.1605
     43  C       -127.9700  -89.5510   24.5200 C.2   239  TYR239      0.2264
     44  O       -127.6130  -88.8790   25.4620 O.2   239  TYR239     -0.2867
     45  CB      -127.1520  -89.1660   22.1840 C.3   239  TYR239      0.0534
     46  CG      -126.8660  -87.6960   22.3550 C.ar  239  TYR239     -0.0201
     47  CD1     -125.6140  -87.2560   22.7880 C.ar  239  TYR239     -0.0009
     48  CD2     -127.8450  -86.7420   22.0890 C.ar  239  TYR239     -0.0009
     49  CE1     -125.3580  -85.9030   22.9420 C.ar  239  TYR239      0.0417
     50  CE2     -127.5880  -85.3850   22.2170 C.ar  239  TYR239      0.0417
     51  CZ      -126.3380  -84.9780   22.6380 C.ar  239  TYR239      0.1957
     52  OH      -126.0840  -83.6420   22.7840 O.3   239  TYR239     -0.2866
     53  N       -126.7640  -90.7570   27.8790 N.3   242  PHE242     -0.1227
     54  CA      -125.6250  -89.9720   28.2730 C.3   242  PHE242      0.1736
     55  C       -126.0760  -88.6320   28.8270 C.2   242  PHE242      0.2595
     56  O       -125.5410  -88.2020   29.8390 O.2   242  PHE242     -0.2718
     57  CB      -124.6590  -89.8040   27.0650 C.3   242  PHE242      0.0547
     58  CG      -123.5450  -88.8440   27.2990 C.ar  242  PHE242     -0.0202
     59  CD1     -122.3430  -89.2740   27.8410 C.ar  242  PHE242     -0.0042
     60  CD2     -123.6860  -87.4910   26.9680 C.ar  242  PHE242     -0.0042
     61  CE1     -121.3300  -88.3910   28.0730 C.ar  242  PHE242     -0.0003
     62  CE2     -122.6650  -86.5880   27.1930 C.ar  242  PHE242     -0.0003
     63  CZ      -121.5000  -87.0280   27.7500 C.ar  242  PHE242     -0.0000
     64  N       -127.0460  -87.9830   28.1630 N.am  243  ILE243     -0.1980
     65  CA      -127.5360  -86.6880   28.6330 C.3   243  ILE243      0.1595
     66  C       -128.2930  -86.8760   29.9510 C.2   243  ILE243      0.2287
     67  O       -128.1210  -86.0780   30.8440 O.2   243  ILE243     -0.2864
     68  CB      -128.3800  -85.9540   27.5630 C.3   243  ILE243      0.0276
     69  CG1     -127.5420  -85.6570   26.3200 C.3   243  ILE243      0.0022
     70  CG2     -128.8600  -84.6090   28.0760 C.3   243  ILE243      0.0022
     71  CD1     -126.3430  -84.8820   26.6000 C.3   243  ILE243      0.0001
     72  N       -125.6150  -86.9680   32.6080 N.3   246  LYS246     -0.1231
     73  CA      -125.0940  -85.6140   32.7860 C.3   246  LYS246      0.1693
     74  C       -126.0000  -84.8060   33.7000 C.2   246  LYS246      0.2591
     75  O       -125.5110  -84.1760   34.6470 O.2   246  LYS246     -0.2718
     76  CB      -124.9050  -84.9300   31.4190 C.3   246  LYS246      0.0285
     77  CG      -124.1270  -83.6360   31.4240 C.3   246  LYS246      0.0035
     78  CD      -123.7620  -83.2580   29.9820 C.3   246  LYS246      0.0206
     79  CE      -122.9910  -81.9520   29.9840 C.3   246  LYS246      0.1093
     80  NZ      -121.6650  -82.1170   30.6230 N.3   246  LYS246     -0.1314
     81  N       -127.3090  -84.8580   33.4580 N.am  247  ARG247     -0.1980
     82  CA      -128.2580  -84.0850   34.2750 C.3   247  ARG247      0.1597
     83  C       -128.3220  -84.5940   35.7080 C.2   247  ARG247      0.2287
     84  O       -128.4000  -83.7870   36.6330 O.2   247  ARG247     -0.2864
     85  CB      -129.6430  -84.0400   33.6210 C.3   247  ARG247      0.0334
     86  CG      -129.6550  -83.4330   32.1910 C.3   247  ARG247      0.0492
     87  CD      -128.8490  -82.1650   31.9670 C.3   247  ARG247      0.2205
     88  NE      -128.8030  -81.8160   30.5350 N.pl3 247  ARG247     -0.0865
     89  CZ      -127.8980  -81.0550   29.9290 C.cat 247  ARG247      0.5346
     90  NH1     -126.8360  -80.5930   30.5570 N.pl3 247  ARG247      0.1354
     91  NH2     -127.9790  -80.8550   28.6140 N.pl3 247  ARG247      0.1354
     92  N       -125.3770  -83.1210   37.3720 N.3   250  GLN250     -0.1245
     93  CA      -125.5860  -81.6870   37.6080 C.3   250  GLN250      0.1566
     94  C       -126.5660  -81.4440   38.7670 C.2   250  GLN250      0.2260
     95  O       -126.4430  -80.4380   39.4860 O.2   250  GLN250     -0.2867
     96  CB      -125.9810  -80.9850   36.2990 C.3   250  GLN250      0.0367
     97  CG      -124.8280  -81.0170   35.2850 C.3   250  GLN250      0.0905
     98  CD      -125.2190  -80.6580   33.8750 C.2   250  GLN250      0.2608
     99  OE1     -126.3480  -80.8810   33.4430 O.2   250  GLN250     -0.2717
    100  NE2     -124.2630  -80.1350   33.1310 N.am  250  GLN250     -0.0878
    101  N       -119.8040  -89.6510   25.3820 N.3   262  ASN262     -0.1240
    102  CA      -120.6820  -89.0290   24.4280 C.3   262  ASN262      0.1653
    103  C       -120.5810  -89.6780   23.0430 C.2   262  ASN262      0.2266
    104  O       -119.5200  -89.6150   22.3940 O.2   262  ASN262     -0.2867
    105  CB      -120.3250  -87.5520   24.3130 C.3   262  ASN262      0.1155
    106  CG      -121.3690  -86.7590   23.5740 C.2   262  ASN262      0.2627
    107  OD1     -122.1400  -87.2940   22.7920 O.2   262  ASN262     -0.2716
    108  ND2     -121.4180  -85.4600   23.8500 N.am  262  ASN262     -0.0877
    109  N       -121.7190  -82.8810   17.7700 N.3   266  ILE266     -0.1245
    110  CA      -122.6550  -81.8210   18.2140 C.3   266  ILE266      0.1561
    111  C       -121.9030  -80.6130   18.8470 C.2   266  ILE266      0.2260
    112  O       -122.3370  -79.4650   18.6610 O.2   266  ILE266     -0.2867
    113  CB      -123.7790  -82.3860   19.1610 C.3   266  ILE266      0.0252
    114  CG1     -124.7630  -83.2850   18.3770 C.3   266  ILE266      0.0019
    115  CG2     -124.5720  -81.2580   19.8570 C.3   266  ILE266      0.0019
    116  CD1     -125.8650  -83.9240   19.2010 C.3   266  ILE266      0.0001
    117  N       -122.5820  -75.2570   18.9280 N.3   270  GLU270     -0.1245
    118  CA      -122.8420  -74.8280   20.3270 C.3   270  GLU270      0.1567
    119  C       -121.7680  -73.8190   20.8340 C.2   270  GLU270      0.2260
    120  O       -120.5480  -73.9500   20.4700 O.2   270  GLU270     -0.2867
    121  CB      -122.8690  -76.0440   21.2940 C.3   270  GLU270      0.0388
    122  CG      -123.1430  -75.6900   22.7230 C.3   270  GLU270      0.1160
    123  CD      -123.2980  -76.8410   23.6690 C.2   270  GLU270      0.3649
    124  OE1     -123.1150  -77.9740   23.2780 O.co2 270  GLU270     -0.2457
    125  OE2     -123.4540  -76.6770   24.8890 O.co2 270  GLU270     -0.2457
@<TRIPOS>BOND
     1   109   110    1
     2   110   111    1
     3   110   113    1
     4   114   113    1
     5   114   116    1
     6   112   111    2
     7   117   118    1
     8   113   115    1
     9   118   119    1
    10   118   121    1
    11   120   119    2
    12   121   122    1
    13     4     3    2
    14    48    50   ar
    15    48    46   ar
    16    45    46    1
    17    45    42    1
    18    50    51   ar
    19    46    47   ar
    20   104   103    2
    21    51    52    1
    22    51    49   ar
    23   122   123    1
    24     3     2    1
    25    47    49   ar
    26   107   106    2
    27   103   102    1
    28    41    42    1
    29   124   123   ar
    30    42    43    1
    31   106   108   am
    32   106   105    1
    33   123   125   ar
    34     2     1    1
    35     2     5    1
    36   105   102    1
    37   102   101    1
    38    43    44    2
    39     5     6    1
    40     8     6   ar
    41     8    10   ar
    42     6     7   ar
    43    10    11   ar
    44    69    71    1
    45    69    68    1
    46     7     9   ar
    47    11     9   ar
    48    11    12    1
    49    60    62   ar
    50    60    58   ar
    51    57    58    1
    52    57    54    1
    53    62    63   ar
    54    58    59   ar
    55    68    70    1
    56    68    65    1
    57    20    19    2
    58    63    61   ar
    59    59    61   ar
    60    53    54    1
    61    13    14    1
    62    64    65    1
    63    64    55   am
    64    19    21   am
    65    19    18    1
    66    17    14    1
    67    17    18    1
    68    54    55    1
    69    91    89    1
    70    65    66    1
    71    55    56    2
    72    14    15    1
    73    89    88    2
    74    89    90    1
    75    66    67    2
    76    78    79    1
    77    78    77    1
    78    79    80    1
    79    15    16    2
    80    88    87    1
    81    28    26    1
    82    76    77    1
    83    76    73    1
    84    87    86    1
    85    86    85    1
    86    26    27    1
    87    26    23    1
    88    22    23    1
    89    72    73    1
    90    73    74    1
    91   100    98   am
    92    23    24    1
    93    99    98    2
    94    81    74   am
    95    81    82    1
    96    85    82    1
    97    74    75    2
    98    98    97    1
    99    29    24   am
   100    29    30    1
   101    82    83    1
   102    24    25    2
   103    33    30    1
   104    33    34    1
   105    30    31    1
   106    97    96    1
   107    83    84    2
   108    34    36   ar
   109    34    35   ar
   110    36    38   ar
   111    96    93    1
   112    35    37   ar
   113    31    32    2
   114    38    39   ar
   115    37    39   ar
   116    92    93    1
   117    39    40    1
   118    93    94    1
   119    94    95    2
