@<TRIPOS>MOLECULE
tmp/2rcnA00.pdb
 108 104 0 0 0
SMALL
GASTEIGER

@<TRIPOS>ATOM
      1  N         23.1420   71.2540   -5.9500 N.3   114  ASN114     -0.1225
      2  CA        24.1390   70.5790   -6.7600 C.3   114  ASN114      0.1785
      3  C         24.8160   71.5160   -7.7510 C.2   114  ASN114      0.2597
      4  O         24.3180   72.6080   -8.0220 O.2   114  ASN114     -0.2718
      5  CB        23.4810   69.4090   -7.4990 C.3   114  ASN114      0.1169
      6  CG        24.4740   68.5810   -8.2910 C.2   114  ASN114      0.2627
      7  OD1       25.5820   68.3160   -7.8340 O.2   114  ASN114     -0.2716
      8  ND2       24.0710   68.1550   -9.4790 N.am  114  ASN114     -0.0877
      9  N         25.9560   71.0720   -8.2810 N.am  115  LYS115     -0.1980
     10  CA        26.7440   71.8210   -9.2620 C.3   115  LYS115      0.1596
     11  C         27.4890   73.0060   -8.6690 C.2   115  LYS115      0.2287
     12  O         27.6660   74.0190   -9.3370 O.2   115  LYS115     -0.2864
     13  CB        25.8560   72.3260  -10.4090 C.3   115  LYS115      0.0298
     14  CG        25.0430   71.2460  -11.0950 C.3   115  LYS115      0.0038
     15  CD        24.3540   71.7570  -12.3660 C.3   115  LYS115      0.0206
     16  CE        23.5270   70.6490  -13.0200 C.3   115  LYS115      0.1093
     17  NZ        22.8870   71.0620  -14.3000 N.3   115  LYS115     -0.1314
     18  N         30.3790   73.3140   -8.3550 N.3   117  ASP117     -0.1225
     19  CA        31.6290   73.4420   -9.0960 C.3   117  ASP117      0.1805
     20  C         31.5280   74.5660  -10.1290 C.2   117  ASP117      0.2597
     21  O         32.5380   75.0390  -10.6450 O.2   117  ASP117     -0.2718
     22  CB        31.9610   72.1260   -9.8080 C.3   117  ASP117      0.1424
     23  CG        30.8370   71.6530  -10.7070 C.2   117  ASP117      0.3668
     24  OD1       29.7920   71.2290  -10.1740 O.co2 117  ASP117     -0.2456
     25  OD2       30.9930   71.7110  -11.9450 O.co2 117  ASP117     -0.2456
     26  N         30.3010   74.9810  -10.4290 N.am  118  LEU118     -0.1979
     27  CA        30.0530   76.0440  -11.3980 C.3   118  LEU118      0.1596
     28  C         30.1480   77.4500  -10.7940 C.2   118  LEU118      0.2287
     29  O         29.9290   78.4410  -11.4890 O.2   118  LEU118     -0.2864
     30  CB        28.6620   75.8550  -12.0150 C.3   118  LEU118      0.0297
     31  CG        28.5360   75.3470  -13.4520 C.3   118  LEU118      0.0022
     32  CD1       29.7110   74.4680  -13.8240 C.3   118  LEU118      0.0001
     33  CD2       27.2310   74.5880  -13.5850 C.3   118  LEU118      0.0001
     34  N         28.5430   68.5750   -5.4610 N.3   145  SER145     -0.1202
     35  CA        28.9150   68.5850   -6.8660 C.3   145  SER145      0.2020
     36  C         29.0940   67.1390   -7.2840 C.2   145  SER145      0.2619
     37  O         30.0350   66.4700   -6.8500 O.2   145  SER145     -0.2717
     38  CB        30.2270   69.3270   -7.0980 C.3   145  SER145      0.2103
     39  OG        30.7030   69.0510   -8.4050 O.3   145  SER145     -0.2182
     40  N         28.1800   66.6590   -8.1170 N.am  146  SER146     -0.1937
     41  CA        28.2360   65.2900   -8.5920 C.3   146  SER146      0.2055
     42  C         29.5220   65.0220   -9.3590 C.2   146  SER146      0.2643
     43  O         30.1800   64.0080   -9.1460 O.2   146  SER146     -0.2714
     44  CB        27.0450   65.0000   -9.4980 C.3   146  SER146      0.2130
     45  OG        27.1740   63.7210  -10.0930 O.3   146  SER146     -0.2179
     46  N         29.8760   65.9420  -10.2490 N.am  147  HIS147     -0.1973
     47  CA        31.0710   65.7940  -11.0700 C.3   147  HIS147      0.1656
     48  C         32.3890   65.7540  -10.3070 C.2   147  HIS147      0.2291
     49  O         33.3240   65.0770  -10.7210 O.2   147  HIS147     -0.2864
     50  CB        31.1050   66.8960  -12.1300 C.3   147  HIS147      0.0771
     51  CG        30.0710   66.7250  -13.1990 C.ar  147  HIS147      0.0820
     52  ND1       30.0470   67.4920  -14.3440 N.ar  147  HIS147     -0.2267
     53  CD2       29.0340   65.8620  -13.3040 C.ar  147  HIS147      0.1154
     54  CE1       29.0410   67.1060  -15.1100 C.ar  147  HIS147      0.1986
     55  NE2       28.4100   66.1190  -14.5010 N.ar  147  HIS147     -0.2212
     56  N         13.8730   69.2820  -13.9530 N.3   170  SER170     -0.1202
     57  CA        14.7920   68.6440  -14.8940 C.3   170  SER170      0.2020
     58  C         16.1210   69.3820  -15.0480 C.2   170  SER170      0.2619
     59  O         16.1670   70.6110  -15.0250 O.2   170  SER170     -0.2717
     60  CB        14.1350   68.5230  -16.2720 C.3   170  SER170      0.2103
     61  OG        12.9400   67.7650  -16.2100 O.3   170  SER170     -0.2182
     62  N         17.1970   68.6150  -15.1960 N.am  171  GLY171     -0.1942
     63  CA        18.5150   69.1940  -15.3950 C.3   171  GLY171      0.2014
     64  C         19.3400   69.5790  -14.1850 C.2   171  GLY171      0.2639
     65  O         20.4780   70.0270  -14.3410 O.2   171  GLY171     -0.2714
     66  N         18.7960   69.4110  -12.9840 N.am  172  VAL172     -0.1963
     67  CA        19.5360   69.7720  -11.7780 C.3   172  VAL172      0.1727
     68  C         20.5900   68.7400  -11.3920 C.2   172  VAL172      0.2617
     69  O         21.4390   69.0040  -10.5390 O.2   172  VAL172     -0.2715
     70  CB        18.5860   69.9840  -10.5710 C.3   172  VAL172      0.0290
     71  CG1       17.6310   71.1280  -10.8610 C.3   172  VAL172      0.0023
     72  CG2       17.8180   68.7030  -10.2750 C.3   172  VAL172      0.0023
     73  N         20.5240   67.5650  -12.0120 N.am  173  GLY173     -0.1940
     74  CA        21.4880   66.5150  -11.7220 C.3   173  GLY173      0.2014
     75  C         20.9970   65.3500  -10.8760 C.2   173  GLY173      0.2639
     76  O         21.7840   64.7510  -10.1460 O.2   173  GLY173     -0.2714
     77  N         19.7110   65.0190  -10.9650 N.am  174  LYS174     -0.1963
     78  CA        19.1660   63.9100  -10.1840 C.3   174  LYS174      0.1728
     79  C         19.7620   62.5690  -10.6130 C.2   174  LYS174      0.2617
     80  O         20.3040   61.8360   -9.7890 O.2   174  LYS174     -0.2715
     81  CB        17.6350   63.8660  -10.2950 C.3   174  LYS174      0.0311
     82  CG        16.9450   65.0600   -9.6360 C.3   174  LYS174      0.0038
     83  CD        15.4200   64.9120   -9.5950 C.3   174  LYS174      0.0206
     84  CE        14.8200   64.9610  -10.9840 C.3   174  LYS174      0.1093
     85  NZ        15.2180   66.2070  -11.7020 N.3   174  LYS174     -0.1314
     86  N         19.6590   62.2440  -11.8970 N.am  175  SER175     -0.1936
     87  CA        20.2180   60.9900  -12.3910 C.3   175  SER175      0.2055
     88  C         21.7190   60.9430  -12.1310 C.2   175  SER175      0.2643
     89  O         22.2690   59.8960  -11.7850 O.2   175  SER175     -0.2714
     90  CB        19.9670   60.8370  -13.8940 C.3   175  SER175      0.2130
     91  OG        18.6090   60.5480  -14.1620 O.3   175  SER175     -0.2179
     92  N         22.3760   62.0860  -12.2990 N.am  176  SER176     -0.1949
     93  CA        23.8120   62.1700  -12.0870 C.3   176  SER176      0.1924
     94  C         24.1830   61.8460  -10.6400 C.2   176  SER176      0.2314
     95  O         25.0750   61.0370  -10.3980 O.2   176  SER176     -0.2863
     96  CB        24.3090   63.5660  -12.4640 C.3   176  SER176      0.2116
     97  OG        25.7140   63.6710  -12.3180 O.3   176  SER176     -0.2180
     98  N         10.1750   61.3400   -9.4320 N.3   212  ARG212     -0.1245
     99  CA        10.9790   62.5540   -9.5250 C.3   212  ARG212      0.1563
    100  C         10.1140   63.7400   -9.9240 C.2   212  ARG212      0.2260
    101  O         10.4150   64.8830   -9.5750 O.2   212  ARG212     -0.2867
    102  CB        12.0910   62.3800  -10.5570 C.3   212  ARG212      0.0307
    103  CG        13.0110   61.2000  -10.3210 C.3   212  ARG212      0.0489
    104  CD        14.1100   61.1880  -11.3720 C.3   212  ARG212      0.2205
    105  NE        15.0010   60.0380  -11.2510 N.pl3 212  ARG212     -0.0865
    106  CZ        16.0840   59.8590  -11.9990 C.cat 212  ARG212      0.5346
    107  NH1       16.4020   60.7600  -12.9180 N.pl3 212  ARG212      0.1354
    108  NH2       16.8490   58.7880  -11.8310 N.pl3 212  ARG212      0.1354
@<TRIPOS>BOND
     1    60    61    1
     2    60    57    1
     3    63    62    1
     4    63    64    1
     5    62    58   am
     6    54    55   ar
     7    54    52   ar
     8    58    59    2
     9    58    57    1
    10    57    56    1
    11    55    53   ar
    12    52    51   ar
    13    65    64    2
    14    17    16    1
    15    64    66   am
    16    91    90    1
    17    90    87    1
    18    32    31    1
    19    33    31    1
    20    31    30    1
    21    53    51   ar
    22    51    50    1
    23    16    15    1
    24    66    67    1
    25   107   106    1
    26    96    97    1
    27    96    93    1
    28    87    88    1
    29    87    86    1
    30    15    14    1
    31    92    88   am
    32    92    93    1
    33    88    89    2
    34    50    47    1
    35    93    94    1
    36    30    27    1
    37    73    74    1
    38    73    68   am
    39   106   108    1
    40   106   105    2
    41    25    23   ar
    42    86    79   am
    43    67    68    1
    44    67    70    1
    45    74    75    1
    46    85    84    1
    47    29    28    2
    48    27    28    1
    49    27    26    1
    50    68    69    2
    51   104   105    1
    52   104   103    1
    53    14    13    1
    54    47    48    1
    55    47    46    1
    56    84    83    1
    57    77    75   am
    58    77    78    1
    59    75    76    2
    60    71    70    1
    61    49    48    2
    62    23    24   ar
    63    23    22    1
    64    21    20    2
    65    94    95    2
    66    79    78    1
    67    79    80    2
    68    70    72    1
    69   102   103    1
    70   102    99    1
    71    26    20   am
    72    13    10    1
    73    81    78    1
    74    81    82    1
    75    46    42   am
    76    20    19    1
    77    45    44    1
    78   100   101    2
    79   100    99    1
    80    22    19    1
    81    82    83    1
    82    99    98    1
    83    44    41    1
    84     8     6   am
    85    42    43    2
    86    42    41    1
    87    12    11    2
    88    10    11    1
    89    10     9    1
    90    19    18    1
    91    41    40    1
    92    39    38    1
    93     6     7    2
    94     6     5    1
    95     9     3   am
    96    40    36   am
    97     4     3    2
    98     3     2    1
    99     5     2    1
   100    36    35    1
   101    36    37    2
   102    38    35    1
   103    35    34    1
   104     2     1    1
