@<TRIPOS>MOLECULE
tmp/2rcrB07.pdb
 99 95 0 0 0
SMALL
GASTEIGER

@<TRIPOS>ATOM
      1  N         15.4860  -16.3050    5.9270 N.3    30  SER30      -0.1202
      2  CA        15.0100  -16.5730    7.2720 C.3    30  SER30       0.2020
      3  C         15.6960  -17.7910    7.8890 C.2    30  SER30       0.2619
      4  O         16.7510  -18.2790    7.4560 O.2    30  SER30      -0.2717
      5  CB        13.4920  -16.7070    7.2650 C.3    30  SER30       0.2103
      6  OG        12.9470  -16.1240    8.4480 O.3    30  SER30      -0.2182
      7  N         15.0730  -18.2620    8.9460 N.am   31  GLY31      -0.1956
      8  CA        15.4180  -19.3780    9.7850 C.3    31  GLY31       0.1869
      9  C         16.0390  -20.5700    9.0720 C.2    31  GLY31       0.2309
     10  O         15.6500  -20.9860    7.9710 O.2    31  GLY31      -0.2863
     11  N         11.3240  -19.1760    4.6720 N.3    50  ILE50      -0.1231
     12  CA        10.0920  -18.4090    4.9160 C.3    50  ILE50       0.1692
     13  C         10.3260  -16.9040    4.7630 C.2    50  ILE50       0.2592
     14  O         11.3720  -16.3690    5.1760 O.2    50  ILE50      -0.2718
     15  CB         9.4870  -18.6160    6.3120 C.3    50  ILE50       0.0266
     16  CG1        8.2330  -17.7360    6.4660 C.3    50  ILE50       0.0019
     17  CG2       10.4480  -18.2740    7.4560 C.3    50  ILE50       0.0020
     18  CD1        7.5280  -17.8500    7.8090 C.3    50  ILE50       0.0001
     19  N          9.3210  -16.2850    4.1510 N.am   51  TYR51      -0.1962
     20  CA         9.2870  -14.8350    3.9320 C.3    51  TYR51       0.1771
     21  C          8.9740  -14.1580    5.2770 C.2    51  TYR51       0.2619
     22  O          8.6920  -14.8480    6.2610 O.2    51  TYR51      -0.2715
     23  CB         8.2170  -14.4420    2.9040 C.3    51  TYR51       0.0574
     24  CG         8.7060  -14.5020    1.4500 C.ar   51  TYR51      -0.0198
     25  CD1        8.9320  -15.7410    0.8510 C.ar   51  TYR51      -0.0009
     26  CD2        8.9240  -13.3220    0.7110 C.ar   51  TYR51      -0.0009
     27  CE1        9.3600  -15.8190   -0.4790 C.ar   51  TYR51       0.0417
     28  CE2        9.3570  -13.3990   -0.6260 C.ar   51  TYR51       0.0417
     29  CZ         9.5710  -14.6510   -1.2190 C.ar   51  TYR51       0.1957
     30  OH         9.9820  -14.7410   -2.5130 O.3    51  TYR51      -0.2866
     31  N          9.0410  -12.8670    5.2390 N.am   52  LEU52      -0.1977
     32  CA         8.8090  -11.9480    6.3660 C.3    52  LEU52       0.1596
     33  C          8.6310  -10.5670    5.7210 C.2    52  LEU52       0.2287
     34  O          9.3690   -9.6190    6.0260 O.2    52  LEU52      -0.2864
     35  CB         9.9790  -12.0550    7.3360 C.3    52  LEU52       0.0297
     36  CG        10.1950  -13.4630    7.8950 C.3    52  LEU52       0.0022
     37  CD1       11.6150  -13.6770    8.4290 C.3    52  LEU52       0.0001
     38  CD2        9.2630  -13.7920    9.0620 C.3    52  LEU52       0.0001
     39  N         -0.2780   -9.8550   11.2430 N.3    60  LEU60      -0.1245
     40  CA         0.1730  -10.3270   12.5670 C.3    60  LEU60       0.1561
     41  C         -0.2380   -9.2360   13.6700 C.2    60  LEU60       0.2260
     42  O         -0.8690   -9.5610   14.6900 O.2    60  LEU60      -0.2867
     43  CB         1.6610  -10.6530   12.4780 C.3    60  LEU60       0.0270
     44  CG         1.9580  -12.1540   12.4650 C.3    60  LEU60       0.0019
     45  CD1        2.8540  -12.5760   11.2990 C.3    60  LEU60       0.0001
     46  CD2        2.6760  -12.6300   13.7310 C.3    60  LEU60       0.0001
     47  N         -3.2720  -10.6180    4.1630 N.3   129  TRP129     -0.1241
     48  CA        -2.7920  -11.9280    3.6440 C.3   129  TRP129      0.1605
     49  C         -2.9870  -11.9520    2.1300 C.2   129  TRP129      0.2264
     50  O         -2.0890  -12.3550    1.3770 O.2   129  TRP129     -0.2867
     51  CB        -3.5250  -13.1180    4.2740 C.3   129  TRP129      0.0550
     52  CG        -2.5980  -14.3370    4.4640 C.ar  129  TRP129      0.0003
     53  CD1       -2.5660  -15.4720    3.7390 C.ar  129  TRP129      0.0946
     54  CD2       -1.6000  -14.4490    5.4660 C.ar  129  TRP129      0.0152
     55  NE1       -1.5340  -16.3070    4.2950 N.ar  129  TRP129     -0.2442
     56  CE2       -0.9820  -15.6840    5.3080 C.ar  129  TRP129      0.0810
     57  CE3       -1.1790  -13.5980    6.4900 C.ar  129  TRP129      0.0012
     58  CZ2        0.0570  -16.1270    6.1380 C.ar  129  TRP129      0.0191
     59  CZ3       -0.1350  -14.0520    7.3180 C.ar  129  TRP129      0.0001
     60  CH2        0.4530  -15.2570    7.1510 C.ar  129  TRP129      0.0015
     61  N         -0.2790  -10.7070    0.0780 N.3   132  ARG132     -0.1245
     62  CA         0.8080  -11.7000    0.0850 C.3   132  ARG132      0.1563
     63  C          0.5380  -12.8100   -0.9860 C.2   132  ARG132      0.2260
     64  O          1.2250  -12.8910   -2.0150 O.2   132  ARG132     -0.2867
     65  CB         0.8860  -12.2600    1.4980 C.3   132  ARG132      0.0307
     66  CG         2.2870  -12.7070    1.9140 C.3   132  ARG132      0.0489
     67  CD         2.4230  -12.8520    3.4330 C.3   132  ARG132      0.2205
     68  NE         3.2780  -13.9760    3.8400 N.pl3 132  ARG132     -0.0865
     69  CZ         3.8760  -14.0560    5.0370 C.cat 132  ARG132      0.5346
     70  NH1        3.7170  -13.0890    5.9520 N.pl3 132  ARG132      0.1354
     71  NH2        4.6620  -15.0710    5.4170 N.pl3 132  ARG132      0.1354
     72  N          5.0700  -17.3470  -10.8930 N.3   142  MET142     -0.1245
     73  CA         3.6850  -17.8740  -10.7720 C.3   142  MET142      0.1570
     74  C          2.6100  -16.7610  -10.6900 C.2   142  MET142      0.2261
     75  O          2.9110  -15.6110  -10.3200 O.2   142  MET142     -0.2867
     76  CB         3.6140  -18.7670   -9.5360 C.3   142  MET142      0.0387
     77  CG         4.7660  -19.7780   -9.4990 C.3   142  MET142      0.0595
     78  SD         4.5470  -21.0520   -8.2800 S.3   142  MET142     -0.1393
     79  CE         5.1020  -22.6180   -8.9210 C.3   142  MET142      0.0692
     80  N        -11.1740  -34.6020   -4.8910 N.3   216  PHE216     -0.1241
     81  CA        -9.7900  -34.5500   -4.3470 C.3   216  PHE216      0.1605
     82  C         -9.2880  -35.9700   -4.0710 C.2   216  PHE216      0.2264
     83  O         -8.1430  -36.3250   -4.4330 O.2   216  PHE216     -0.2867
     84  CB        -9.5390  -33.5690   -3.2180 C.3   216  PHE216      0.0534
     85  CG        -8.0980  -33.1180   -3.1500 C.ar  216  PHE216     -0.0203
     86  CD1       -7.2850  -33.1700   -4.2810 C.ar  216  PHE216     -0.0042
     87  CD2       -7.5510  -32.6990   -1.9430 C.ar  216  PHE216     -0.0042
     88  CE1       -5.9470  -32.7820   -4.2200 C.ar  216  PHE216     -0.0003
     89  CE2       -6.2200  -32.3160   -1.8640 C.ar  216  PHE216     -0.0003
     90  CZ        -5.4130  -32.3590   -2.9970 C.ar  216  PHE216     -0.0000
     91  N          3.1340  -33.2380  -12.7980 N.3   234  GLU234     -0.1245
     92  CA         2.0290  -33.0250  -13.7190 C.3   234  GLU234      0.1567
     93  C          2.3600  -31.9120  -14.7010 C.2   234  GLU234      0.2260
     94  O          2.0230  -31.9950  -15.8930 O.2   234  GLU234     -0.2867
     95  CB         0.7530  -32.6930  -12.9190 C.3   234  GLU234      0.0388
     96  CG         1.0290  -31.7950  -11.7020 C.3   234  GLU234      0.1160
     97  CD         0.2360  -32.1870  -10.4440 C.2   234  GLU234      0.3649
     98  OE1       -0.8450  -32.8830  -10.5470 O.co2 234  GLU234     -0.2457
     99  OE2        0.6490  -31.8150   -9.2770 O.co2 234  GLU234     -0.2457
@<TRIPOS>BOND
     1    94    93    2
     2    93    92    1
     3    92    95    1
     4    92    91    1
     5    95    96    1
     6    96    97    1
     7    72    73    1
     8    73    74    1
     9    73    76    1
    10    74    75    2
    11    98    97   ar
    12    97    99   ar
    13    76    77    1
    14    77    78    1
    15    79    78    1
    16    80    81    1
    17    83    82    2
    18    81    82    1
    19    81    84    1
    20    86    88   ar
    21    86    85   ar
    22    88    90   ar
    23    84    85    1
    24    85    87   ar
    25    90    89   ar
    26    30    29    1
    27    64    63    2
    28    87    89   ar
    29    29    28   ar
    30    29    27   ar
    31    63    62    1
    32    28    26   ar
    33    27    25   ar
    34    61    62    1
    35    62    65    1
    36    26    24   ar
    37    25    24   ar
    38    50    49    2
    39    24    23    1
    40    65    66    1
    41    66    67    1
    42    49    48    1
    43    23    20    1
    44    67    68    1
    45    48    47    1
    46    48    51    1
    47    53    55   ar
    48    53    52   ar
    49    68    69    2
    50    20    19    1
    51    20    21    1
    52    19    13   am
    53    51    52    1
    54    55    56   ar
    55    52    54   ar
    56    11    12    1
    57    13    12    1
    58    13    14    2
    59    12    15    1
    60    69    71    1
    61    69    70    1
    62    31    21   am
    63    31    32    1
    64    21    22    2
    65    56    54   ar
    66    56    58   ar
    67    54    57   ar
    68    33    34    2
    69    33    32    1
    70     1     2    1
    71    58    60   ar
    72    15    16    1
    73    15    17    1
    74    32    35    1
    75    16    18    1
    76    57    59   ar
    77    60    59   ar
    78     5     2    1
    79     5     6    1
    80     2     3    1
    81    35    36    1
    82     4     3    2
    83     3     7   am
    84    36    37    1
    85    36    38    1
    86    10     9    2
    87     7     8    1
    88     9     8    1
    89    39    40    1
    90    45    44    1
    91    44    43    1
    92    44    46    1
    93    43    40    1
    94    40    41    1
    95    41    42    2
