@<TRIPOS>MOLECULE
tmp/2rcwA00.pdb
 149 147 0 0 0
SMALL
GASTEIGER

@<TRIPOS>ATOM
      1  N        -18.9280   61.8880   37.8370 N.3    98  GLN98      -0.1245
      2  CA       -19.5030   62.3670   36.5850 C.3    98  GLN98       0.1566
      3  C        -18.9300   63.7290   36.2220 C.2    98  GLN98       0.2260
      4  O        -18.5520   63.9710   35.0750 O.2    98  GLN98      -0.2867
      5  CB       -21.0250   62.4660   36.7050 C.3    98  GLN98       0.0367
      6  CG       -21.7130   61.1380   36.9670 C.3    98  GLN98       0.0905
      7  CD       -23.2180   61.2750   37.0900 C.2    98  GLN98       0.2608
      8  OE1      -23.8890   61.7370   36.1670 O.2    98  GLN98      -0.2717
      9  NE2      -23.7560   60.8730   38.2360 N.am   98  GLN98      -0.0878
     10  N        -15.4570   63.2550   35.1680 N.3   101  VAL101     -0.1231
     11  CA       -15.4450   62.5560   33.8910 C.3   101  VAL101      0.1692
     12  C        -15.7620   63.5330   32.7670 C.2   101  VAL101      0.2591
     13  O        -15.3150   63.3570   31.6360 O.2   101  VAL101     -0.2718
     14  CB       -16.4630   61.4240   33.9060 C.3   101  VAL101      0.0266
     15  CG1      -17.0630   60.9670   32.5440 C.3   101  VAL101      0.0020
     16  CG2      -15.9500   60.2350   34.7140 C.3   101  VAL101      0.0020
     17  N        -16.5360   64.5640   33.0880 N.am  102  GLU102     -0.1979
     18  CA       -16.9110   65.5730   32.1060 C.3   102  GLU102      0.1602
     19  C        -15.7540   66.5310   31.8350 C.2   102  GLU102      0.2287
     20  O        -15.6130   67.0500   30.7280 O.2   102  GLU102     -0.2864
     21  CB       -18.1290   66.3610   32.5980 C.3   102  GLU102      0.0415
     22  CG       -19.4000   65.5320   32.7190 C.3   102  GLU102      0.1163
     23  CD       -20.5710   66.3330   33.2600 C.2   102  GLU102      0.3649
     24  OE1      -20.4870   66.8100   34.4110 O.co2 102  GLU102     -0.2457
     25  OE2      -21.5760   66.4850   32.5330 O.co2 102  GLU102     -0.2457
     26  N        -13.1450   65.0680   29.2500 N.3   105  ASP105     -0.1239
     27  CA       -13.6320   65.1440   27.8750 C.3   105  ASP105      0.1674
     28  C        -13.2580   66.4730   27.2340 C.2   105  ASP105      0.2266
     29  O        -12.7220   66.5100   26.1270 O.2   105  ASP105     -0.2867
     30  CB       -15.1530   64.9720   27.8330 C.3   105  ASP105      0.1410
     31  CG       -15.5860   63.5390   28.0650 C.2   105  ASP105      0.3668
     32  OD1      -15.2740   62.9850   29.1390 O.co2 105  ASP105     -0.2456
     33  OD2      -16.2410   62.9670   27.1680 O.co2 105  ASP105     -0.2456
     34  N        -30.0310   67.8150   16.6520 N.3   200  TRP200     -0.1227
     35  CA       -29.1200   68.8190   17.1940 C.3   200  TRP200      0.1737
     36  C        -28.0130   68.1820   18.0230 C.2   200  TRP200      0.2595
     37  O        -28.1210   67.0340   18.4520 O.2   200  TRP200     -0.2718
     38  CB       -29.8700   69.8120   18.0880 C.3   200  TRP200      0.0564
     39  CG       -30.8800   70.6610   17.3870 C.ar  200  TRP200      0.0003
     40  CD1      -32.2290   70.4670   17.3440 C.ar  200  TRP200      0.0946
     41  CD2      -30.6220   71.8550   16.6390 C.ar  200  TRP200      0.0152
     42  NE1      -32.8280   71.4690   16.6180 N.ar  200  TRP200     -0.2442
     43  CE2      -31.8630   72.3320   16.1750 C.ar  200  TRP200      0.0810
     44  CE3      -29.4620   72.5650   16.3190 C.ar  200  TRP200      0.0012
     45  CZ2      -31.9740   73.4880   15.4050 C.ar  200  TRP200      0.0191
     46  CZ3      -29.5750   73.7100   15.5550 C.ar  200  TRP200      0.0001
     47  CH2      -30.8230   74.1610   15.1070 C.ar  200  TRP200      0.0015
     48  N        -26.9510   68.9460   18.2530 N.am  201  HIS201     -0.1961
     49  CA       -25.8230   68.4820   19.0500 C.3   201  HIS201      0.1787
     50  C        -25.0310   69.6750   19.5700 C.2   201  HIS201      0.2620
     51  O        -24.4420   70.4260   18.7930 O.2   201  HIS201     -0.2715
     52  CB       -24.9040   67.5860   18.2230 C.3   201  HIS201      0.0785
     53  CG       -23.7710   67.0030   19.0100 C.ar  201  HIS201      0.0821
     54  ND1      -23.9630   66.0890   20.0230 N.ar  201  HIS201     -0.2267
     55  CD2      -22.4360   67.2240   18.9490 C.ar  201  HIS201      0.1154
     56  CE1      -22.7950   65.7720   20.5540 C.ar  201  HIS201      0.1986
     57  NE2      -21.8530   66.4470   19.9210 N.ar  201  HIS201     -0.2212
     58  N        -25.0210   69.8450   20.8870 N.am  202  GLY202     -0.1954
     59  CA       -24.2990   70.9550   21.4780 C.3   202  GLY202      0.1869
     60  C        -23.1020   70.5170   22.2980 C.2   202  GLY202      0.2309
     61  O        -23.1120   69.4490   22.9120 O.2   202  GLY202     -0.2863
     62  N        -22.5320   58.6570   34.1560 N.3   227  GLY227     -0.1210
     63  CA       -22.8110   59.9090   33.4780 C.3   227  GLY227      0.1956
     64  C        -23.6820   59.7100   32.2550 C.2   227  GLY227      0.2612
     65  O        -24.6460   60.4440   32.0430 O.2   227  GLY227     -0.2717
     66  N        -23.3390   58.7150   31.4440 N.am  228  TYR228     -0.1962
     67  CA       -24.1050   58.4200   30.2410 C.3   228  TYR228      0.1771
     68  C        -25.3470   57.6300   30.6410 C.2   228  TYR228      0.2619
     69  O        -25.2600   56.6840   31.4220 O.2   228  TYR228     -0.2715
     70  CB       -23.2660   57.5950   29.2590 C.3   228  TYR228      0.0574
     71  CG       -21.8740   58.1360   29.0110 C.ar  228  TYR228     -0.0198
     72  CD1      -20.8800   58.0250   29.9760 C.ar  228  TYR228     -0.0009
     73  CD2      -21.5520   58.7570   27.8100 C.ar  228  TYR228     -0.0009
     74  CE1      -19.6060   58.5160   29.7530 C.ar  228  TYR228      0.0417
     75  CE2      -20.2800   59.2520   27.5780 C.ar  228  TYR228      0.0417
     76  CZ       -19.3120   59.1290   28.5520 C.ar  228  TYR228      0.1957
     77  OH       -18.0460   59.6230   28.3290 O.3   228  TYR228     -0.2866
     78  N        -26.5010   58.0230   30.1120 N.am  229  MET229     -0.1977
     79  CA       -27.7500   57.3380   30.4270 C.3   229  MET229      0.1605
     80  C        -27.9820   56.1360   29.5260 C.2   229  MET229      0.2287
     81  O        -28.7950   55.2670   29.8370 O.2   229  MET229     -0.2864
     82  CB       -28.9350   58.2950   30.2920 C.3   229  MET229      0.0413
     83  CG       -29.0680   59.3040   31.4150 C.3   229  MET229      0.0598
     84  SD       -30.5100   60.3500   31.1690 S.3   229  MET229     -0.1393
     85  CE       -31.8380   59.1650   31.4290 C.3   229  MET229      0.0692
     86  N        -24.8010   61.2210   21.2240 N.3   235  TYR235     -0.1227
     87  CA       -26.1490   61.6630   21.5660 C.3   235  TYR235      0.1736
     88  C        -26.5930   62.8890   20.7730 C.2   235  TYR235      0.2595
     89  O        -25.7920   63.7780   20.4860 O.2   235  TYR235     -0.2718
     90  CB       -26.2290   61.9840   23.0600 C.3   235  TYR235      0.0548
     91  CG       -26.0100   60.8000   23.9750 C.ar  235  TYR235     -0.0200
     92  CD1      -24.8590   60.0290   23.8880 C.ar  235  TYR235     -0.0009
     93  CD2      -26.9510   60.4620   24.9360 C.ar  235  TYR235     -0.0009
     94  CE1      -24.6540   58.9530   24.7320 C.ar  235  TYR235      0.0417
     95  CE2      -26.7540   59.3890   25.7850 C.ar  235  TYR235      0.0417
     96  CZ       -25.6060   58.6380   25.6780 C.ar  235  TYR235      0.1957
     97  OH       -25.4120   57.5680   26.5200 O.3   235  TYR235     -0.2866
     98  N        -27.8760   62.9310   20.4250 N.am  236  PHE236     -0.1962
     99  CA       -28.4360   64.0580   19.6850 C.3   236  PHE236      0.1771
    100  C        -29.7640   64.4750   20.3080 C.2   236  PHE236      0.2619
    101  O        -30.0760   64.0980   21.4360 O.2   236  PHE236     -0.2715
    102  CB       -28.6660   63.6960   18.2150 C.3   236  PHE236      0.0574
    103  CG       -27.4090   63.3800   17.4570 C.ar  236  PHE236     -0.0200
    104  CD1      -26.8440   62.1170   17.5160 C.ar  236  PHE236     -0.0042
    105  CD2      -26.7940   64.3480   16.6800 C.ar  236  PHE236     -0.0042
    106  CE1      -25.6910   61.8260   16.8130 C.ar  236  PHE236     -0.0003
    107  CE2      -25.6400   64.0630   15.9760 C.ar  236  PHE236     -0.0003
    108  CZ       -25.0890   62.8000   16.0420 C.ar  236  PHE236     -0.0000
    109  N        -30.5460   65.2520   19.5670 N.am  237  ALA237     -0.1977
    110  CA       -31.8420   65.7100   20.0530 C.3   237  ALA237      0.1597
    111  C        -32.6390   66.3720   18.9350 C.2   237  ALA237      0.2287
    112  O        -32.1250   66.5880   17.8390 O.2   237  ALA237     -0.2864
    113  CB       -31.6500   66.6860   21.2070 C.3   237  ALA237      0.0319
    114  N        -32.5340   71.5780   24.0780 N.3   242  LYS242     -0.1231
    115  CA       -31.9740   70.4510   24.8160 C.3   242  LYS242      0.1693
    116  C        -30.4670   70.3590   24.6060 C.2   242  LYS242      0.2592
    117  O        -29.7290   69.9550   25.5040 O.2   242  LYS242     -0.2718
    118  CB       -32.6320   69.1430   24.3700 C.3   242  LYS242      0.0285
    119  CG       -31.9160   67.8930   24.8600 C.3   242  LYS242      0.0035
    120  CD       -31.7930   67.8680   26.3740 C.3   242  LYS242      0.0206
    121  CE       -31.0460   66.6290   26.8420 C.3   242  LYS242      0.1093
    122  NZ       -30.9050   66.5760   28.3230 N.3   242  LYS242     -0.1314
    123  N        -30.0170   70.7360   23.4150 N.am  243  SER243     -0.1952
    124  CA       -28.5980   70.6990   23.0890 C.3   243  SER243      0.1924
    125  C        -27.9130   71.9760   23.5610 C.2   243  SER243      0.2314
    126  O        -26.7180   71.9810   23.8540 O.2   243  SER243     -0.2863
    127  CB       -28.4110   70.5380   21.5790 C.3   243  SER243      0.2116
    128  OG       -28.9870   69.3270   21.1200 O.3   243  SER243     -0.2180
    129  N        -25.7120   72.3560   26.5720 N.3   246  TYR246     -0.1241
    130  CA       -24.4170   71.6930   26.5020 C.3   246  TYR246      0.1605
    131  C        -23.3440   72.5930   25.9040 C.2   246  TYR246      0.2264
    132  O        -22.1870   72.1950   25.7720 O.2   246  TYR246     -0.2867
    133  CB       -24.5380   70.3970   25.7010 C.3   246  TYR246      0.0534
    134  CG       -25.3340   69.3370   26.4260 C.ar  246  TYR246     -0.0201
    135  CD1      -24.8310   68.7240   27.5640 C.ar  246  TYR246     -0.0009
    136  CD2      -26.6020   68.9730   25.9950 C.ar  246  TYR246     -0.0009
    137  CE1      -25.5670   67.7790   28.2530 C.ar  246  TYR246      0.0417
    138  CE2      -27.3470   68.0310   26.6790 C.ar  246  TYR246      0.0417
    139  CZ       -26.8230   67.4370   27.8060 C.ar  246  TYR246      0.1957
    140  OH       -27.5570   66.4970   28.4900 O.3   246  TYR246     -0.2866
    141  N        -34.1050   61.9640   23.0770 N.3   327  GLU327     -0.1245
    142  CA       -32.6690   61.7280   23.1210 C.3   327  GLU327      0.1567
    143  C        -32.3090   60.5310   22.2480 C.2   327  GLU327      0.2260
    144  O        -32.5850   59.3870   22.6060 O.2   327  GLU327     -0.2867
    145  CB       -32.2510   61.4770   24.5720 C.3   327  GLU327      0.0388
    146  CG       -30.7640   61.3080   24.8080 C.3   327  GLU327      0.1160
    147  CD       -30.4390   61.1970   26.2850 C.2   327  GLU327      0.3649
    148  OE1      -29.2520   61.0210   26.6310 O.co2 327  GLU327     -0.2457
    149  OE2      -31.3770   61.2880   27.1040 O.co2 327  GLU327     -0.2457
@<TRIPOS>BOND
     1    47    45   ar
     2    47    46   ar
     3    45    43   ar
     4    46    44   ar
     5   107   108   ar
     6   107   105   ar
     7   108   106   ar
     8    43    42   ar
     9    43    41   ar
    10    44    41   ar
    11    42    40   ar
    12    41    39   ar
    13    34    35    1
    14   105   103   ar
    15   106   104   ar
    16    35    36    1
    17    35    38    1
    18    40    39   ar
    19    39    38    1
    20   103   104   ar
    21   103   102    1
    22   112   111    2
    23    36    48   am
    24    36    37    2
    25   102    99    1
    26    52    53    1
    27    52    49    1
    28    48    49    1
    29    51    50    2
    30   111   110    1
    31    55    53   ar
    32    55    57   ar
    33    53    54   ar
    34    49    50    1
    35   109   110    1
    36   109   100   am
    37    50    58   am
    38    99   100    1
    39    99    98    1
    40    57    56   ar
    41    54    56   ar
    42   110   113    1
    43   100   101    2
    44    98    88   am
    45    89    88    2
    46    88    87    1
    47    58    59    1
    48   128   127    1
    49    86    87    1
    50    59    60    1
    51    87    90    1
    52   127   124    1
    53   143   144    2
    54   143   142    1
    55    60    61    2
    56    90    91    1
    57   141   142    1
    58   124   123    1
    59   124   125    1
    60   142   145    1
    61   123   116   am
    62   125   126    2
    63    92    91   ar
    64    92    94   ar
    65    91    93   ar
    66   114   115    1
    67   118   115    1
    68   118   119    1
    69   145   146    1
    70   116   115    1
    71   116   117    2
    72    94    96   ar
    73   146   147    1
    74   119   120    1
    75    93    95   ar
    76    96    95   ar
    77    96    97    1
    78   133   134    1
    79   133   130    1
    80   132   131    2
    81   131   130    1
    82   136   134   ar
    83   136   138   ar
    84    29    28    2
    85   147   148   ar
    86   147   149   ar
    87   120   121    1
    88   134   135   ar
    89   130   129    1
    90   138   139   ar
    91   121   122    1
    92    33    31   ar
    93    28    27    1
    94   135   137   ar
    95    75    73   ar
    96    75    76   ar
    97   139   137   ar
    98   139   140    1
    99    73    71   ar
   100    30    27    1
   101    30    31    1
   102    27    26    1
   103    31    32   ar
   104    77    76    1
   105    76    74   ar
   106    71    70    1
   107    71    72   ar
   108    70    67    1
   109    80    81    2
   110    80    79    1
   111    74    72   ar
   112    78    79    1
   113    78    68   am
   114    67    68    1
   115    67    66    1
   116    82    79    1
   117    82    83    1
   118    68    69    2
   119    20    19    2
   120    84    83    1
   121    84    85    1
   122    66    64   am
   123    13    12    2
   124    19    18    1
   125    65    64    2
   126    18    21    1
   127    18    17    1
   128    64    63    1
   129    25    23   ar
   130    15    14    1
   131    21    22    1
   132    22    23    1
   133    12    17   am
   134    12    11    1
   135    23    24   ar
   136    63    62    1
   137    11    14    1
   138    11    10    1
   139    14    16    1
   140     4     3    2
   141     8     7    2
   142     3     2    1
   143     2     5    1
   144     2     1    1
   145     5     6    1
   146     6     7    1
   147     7     9   am
