@<TRIPOS>MOLECULE
tmp/2rcxA00.pdb
 133 122 0 0 0
SMALL
GASTEIGER

@<TRIPOS>ATOM
      1  N         27.0380    1.5890   16.0550 N.3    61  SER61      -0.1217
      2  CA        28.4240    2.0280   16.3680 C.3    61  SER61       0.1889
      3  C         29.2980    1.1370   17.2310 C.2    61  SER61       0.2288
      4  O         30.5010    1.4000   17.3450 O.2    61  SER61      -0.2866
      5  CB        28.4270    3.3940   17.0360 C.3    61  SER61       0.2089
      6  OG        27.8990    4.2990   16.0970 O.3    61  SER61      -0.2183
      7  N         32.3410    0.2260   15.4750 N.3    64  LYS64      -0.1245
      8  CA        33.6030    0.9620   15.5890 C.3    64  LYS64       0.1561
      9  C         34.6630    0.2360   16.3840 C.2    64  LYS64       0.2260
     10  O         35.8430    0.4920   16.1970 O.2    64  LYS64      -0.2867
     11  CB        33.3980    2.3530   16.2020 C.3    64  LYS64       0.0271
     12  CG        32.6250    3.2840   15.2540 C.3    64  LYS64       0.0035
     13  CD        32.3240    4.5990   15.9900 C.3    64  LYS64       0.0206
     14  CE        31.6550    5.6280   15.0610 C.3    64  LYS64       0.1093
     15  NZ        30.2360    5.2600   14.6750 N.3    64  LYS64      -0.1314
     16  N         29.5010   14.4740   12.2650 N.3   116  LEU116     -0.1231
     17  CA        28.9510   13.2680   12.8750 C.3   116  LEU116      0.1693
     18  C         28.5370   12.2530   11.7950 C.2   116  LEU116      0.2591
     19  O         28.8380   11.0700   11.9040 O.2   116  LEU116     -0.2718
     20  CB        27.7870   13.6360   13.8030 C.3   116  LEU116      0.0284
     21  CG        26.9940   12.4700   14.3930 C.3   116  LEU116      0.0019
     22  CD1       27.9130   11.4570   15.1050 C.3   116  LEU116      0.0001
     23  CD2       25.8850   12.9710   15.3280 C.3   116  LEU116      0.0001
     24  N         27.8970   12.7420   10.7340 N.am  117  GLN117     -0.1979
     25  CA        27.4360   11.8890    9.6460 C.3   117  GLN117      0.1601
     26  C         28.0600   12.3080    8.3130 C.2   117  GLN117      0.2287
     27  O         28.2980   13.5220    8.0390 O.2   117  GLN117     -0.2864
     28  CB        25.9090   11.9940    9.5060 C.3   117  GLN117      0.0394
     29  CG        25.1120   11.4330   10.6780 C.3   117  GLN117      0.0908
     30  CD        24.1190   12.4520   11.2540 C.2   117  GLN117      0.2608
     31  OE1       24.4190   13.6670   11.3740 O.2   117  GLN117     -0.2717
     32  NE2       22.9330   11.9710   11.6110 N.am  117  GLN117     -0.0878
     33  N         32.8540   13.1910   18.3160 N.3   147  TYR147     -0.1241
     34  CA        32.4440   11.8690   17.8440 C.3   147  TYR147      0.1605
     35  C         31.8370   11.9510   16.4470 C.2   147  TYR147      0.2264
     36  O         30.9120   12.7370   16.2060 O.2   147  TYR147     -0.2867
     37  CB        31.4160   11.2820   18.8250 C.3   147  TYR147      0.0534
     38  CG        30.9910    9.8720   18.4990 C.ar  147  TYR147     -0.0201
     39  CD1       29.7740    9.6250   17.8570 C.ar  147  TYR147     -0.0009
     40  CD2       31.8060    8.7780   18.8340 C.ar  147  TYR147     -0.0009
     41  CE1       29.3850    8.3240   17.5380 C.ar  147  TYR147      0.0417
     42  CE2       31.4060    7.4740   18.5380 C.ar  147  TYR147      0.0417
     43  CZ        30.1970    7.2590   17.9050 C.ar  147  TYR147      0.1957
     44  OH        29.7980    5.9720   17.6270 O.3   147  TYR147     -0.2866
     45  N         31.1780    9.6040   12.6040 N.3   149  ASN149     -0.1240
     46  CA        31.3290    8.4740   11.6820 C.3   149  ASN149      0.1653
     47  C         32.3180    8.7290   10.5490 C.2   149  ASN149      0.2266
     48  O         32.9580    7.7970   10.0590 O.2   149  ASN149     -0.2867
     49  CB        29.9880    8.1820   11.0190 C.3   149  ASN149      0.1155
     50  CG        29.0090    7.5460   11.9330 C.2   149  ASN149      0.2627
     51  OD1       29.3470    7.0310   13.0200 O.2   149  ASN149     -0.2716
     52  ND2       27.7480    7.5940   11.5230 N.am  149  ASN149     -0.0877
     53  N         11.3620    1.1320   14.6930 N.3   201  ARG201     -0.1245
     54  CA        11.3840    2.5610   14.8860 C.3   201  ARG201      0.1563
     55  C          9.9600    3.0590   14.6680 C.2   201  ARG201      0.2260
     56  O          9.4010    2.9010   13.5740 O.2   201  ARG201     -0.2867
     57  CB        12.3100    3.2170   13.8670 C.3   201  ARG201      0.0307
     58  CG        12.4570    4.7210   14.0830 C.3   201  ARG201      0.0489
     59  CD        13.0890    5.3560   12.8960 C.3   201  ARG201      0.2205
     60  NE        13.2250    6.7970   13.1060 N.pl3 201  ARG201     -0.0865
     61  CZ        13.8170    7.6360   12.2560 C.cat 201  ARG201      0.5346
     62  NH1       14.3500    7.1860   11.1160 N.pl3 201  ARG201      0.1354
     63  NH2       13.8900    8.9360   12.5520 N.pl3 201  ARG201      0.1354
     64  N         19.0430   -1.2060    8.6100 N.3   208  VAL208     -0.1245
     65  CA        19.9470   -0.0880    8.3080 C.3   208  VAL208      0.1561
     66  C         20.0800    0.0750    6.7750 C.2   208  VAL208      0.2260
     67  O         20.1070   -0.9180    6.0340 O.2   208  VAL208     -0.2867
     68  CB        21.3350   -0.2910    9.0150 C.3   208  VAL208      0.0252
     69  CG1       22.0360   -1.5190    8.4860 C.3   208  VAL208      0.0019
     70  CG2       22.2440    0.9640    8.9120 C.3   208  VAL208      0.0019
     71  N         29.3310    1.7810   11.2620 N.3   218  TYR218     -0.1241
     72  CA        28.0970    1.2850   11.8680 C.3   218  TYR218      0.1605
     73  C         27.4450    0.0350   11.2210 C.2   218  TYR218      0.2264
     74  O         26.2970   -0.2580   11.5000 O.2   218  TYR218     -0.2867
     75  CB        27.0450    2.4060   11.9830 C.3   218  TYR218      0.0534
     76  CG        26.6610    3.0520   10.6450 C.ar  218  TYR218     -0.0201
     77  CD1       25.6900    2.4760    9.8170 C.ar  218  TYR218     -0.0009
     78  CD2       27.2940    4.2130   10.2110 C.ar  218  TYR218     -0.0009
     79  CE1       25.3250    3.0650    8.5940 C.ar  218  TYR218      0.0417
     80  CE2       26.9610    4.8100    8.9980 C.ar  218  TYR218      0.0417
     81  CZ        25.9670    4.2400    8.1970 C.ar  218  TYR218      0.1957
     82  OH        25.6460    4.8340    6.9960 O.3   218  TYR218     -0.2866
     83  N         23.5550   11.0420   24.8160 N.3   286  ASN286     -0.1240
     84  CA        23.9710   11.5650   23.5320 C.3   286  ASN286      0.1653
     85  C         24.5460   12.9620   23.4620 C.2   286  ASN286      0.2266
     86  O         25.4810   13.1900   22.7070 O.2   286  ASN286     -0.2867
     87  CB        22.8700   11.3840   22.4930 C.3   286  ASN286      0.1155
     88  CG        23.0260   10.0930   21.7300 C.2   286  ASN286      0.2627
     89  OD1       24.1150    9.5040   21.6990 O.2   286  ASN286     -0.2716
     90  ND2       21.9500    9.6360   21.1140 N.am  286  ASN286     -0.0877
     91  N         28.0510   12.9930   22.2070 N.3   290  LEU290     -0.1245
     92  CA        28.1470   13.5710   20.8590 C.3   290  LEU290      0.1561
     93  C         28.5720   15.0550   20.8330 C.2   290  LEU290      0.2260
     94  O         28.5780   15.6670   19.7540 O.2   290  LEU290     -0.2867
     95  CB        26.8290   13.3770   20.0730 C.3   290  LEU290      0.0270
     96  CG        26.1400   12.0050   19.9000 C.3   290  LEU290      0.0019
     97  CD1       24.7450   12.1450   19.2610 C.3   290  LEU290      0.0001
     98  CD2       26.9610   11.0270   19.1000 C.3   290  LEU290      0.0001
     99  N         23.9710    2.4160   17.9120 N.3   315  ALA315     -0.1231
    100  CA        22.5960    2.5650   17.4980 C.3   315  ALA315      0.1694
    101  C         22.4780    2.4690   15.9980 C.2   315  ALA315      0.2593
    102  O         23.3670    2.8880   15.2820 O.2   315  ALA315     -0.2718
    103  CB        22.0370    3.9100   17.9920 C.3   315  ALA315      0.0304
    104  N         21.3980    1.8770   15.5170 N.am  316  THR316     -0.1939
    105  CA        20.9200    2.1910   14.1600 C.3   316  THR316      0.2028
    106  C         19.5000    2.7340   14.3410 C.2   316  THR316      0.2642
    107  O         19.0580    2.9120   15.4760 O.2   316  THR316     -0.2714
    108  CB        20.9820    0.9850   13.1910 C.3   316  THR316      0.1808
    109  OG1       20.1150   -0.0520   13.6640 O.3   316  THR316     -0.2208
    110  CG2       22.4140    0.4340   13.0920 C.3   316  THR316      0.0379
    111  N         18.7810    3.0350   13.2580 N.am  317  GLY317     -0.1954
    112  CA        17.4420    3.6070   13.4220 C.3   317  GLY317      0.1869
    113  C         16.5040    2.6980   14.2290 C.2   317  GLY317      0.2309
    114  O         15.6310    3.1790   14.9590 O.2   317  GLY317     -0.2863
    115  N         16.0600    1.2590   19.3010 N.3   340  ASN340     -0.1240
    116  CA        17.0410    2.2400   19.7210 C.3   340  ASN340      0.1653
    117  C         16.4840    3.0230   20.9270 C.2   340  ASN340      0.2266
    118  O         15.7730    4.0140   20.7600 O.2   340  ASN340     -0.2867
    119  CB        17.3820    3.1770   18.5540 C.3   340  ASN340      0.1155
    120  CG        18.3800    4.2910   18.9390 C.2   340  ASN340      0.2627
    121  OD1       19.0770    4.2100   19.9460 O.2   340  ASN340     -0.2716
    122  ND2       18.4410    5.3340   18.1150 N.am  340  ASN340     -0.0877
    123  N         20.6610    2.0030   29.0220 N.3   346  ARG346     -0.1245
    124  CA        21.5820    0.8820   28.7340 C.3   346  ARG346      0.1563
    125  C         22.6890    0.7990   29.7760 C.2   346  ARG346      0.2260
    126  O         22.9040   -0.2610   30.3840 O.2   346  ARG346     -0.2867
    127  CB        22.2450    1.0230   27.3460 C.3   346  ARG346      0.0307
    128  CG        21.2810    1.2260   26.2300 C.3   346  ARG346      0.0489
    129  CD        21.9610    1.3930   24.8340 C.3   346  ARG346      0.2205
    130  NE        21.0600    2.0630   23.8890 N.pl3 346  ARG346     -0.0865
    131  CZ        21.3720    2.3450   22.6280 C.cat 346  ARG346      0.5346
    132  NH1       22.5570    2.0010   22.1600 N.pl3 346  ARG346      0.1354
    133  NH2       20.5090    2.9620   21.8340 N.pl3 346  ARG346      0.1354
@<TRIPOS>BOND
     1    67    66    2
     2    66    65    1
     3    82    81    1
     4    27    26    2
     5    81    79   ar
     6    81    80   ar
     7    65    64    1
     8    65    68    1
     9    26    25    1
    10    69    68    1
    11    79    77   ar
    12    70    68    1
    13    80    78   ar
    14    28    25    1
    15    28    29    1
    16    25    24    1
    17    77    76   ar
    18    48    47    2
    19    78    76   ar
    20    47    46    1
    21    76    75    1
    22    29    30    1
    23    24    18   am
    24    49    46    1
    25    49    50    1
    26    62    61    1
    27    73    74    2
    28    73    72    1
    29    30    31    2
    30    30    32   am
    31    71    72    1
    32    52    50   am
    33    46    45    1
    34    18    19    2
    35    18    17    1
    36    72    75    1
    37    50    51    2
    38    61    63    1
    39    61    60    2
    40    16    17    1
    41    17    20    1
    42    59    60    1
    43    59    58    1
    44   110   108    1
    45   108   109    1
    46   108   105    1
    47   111   112    1
    48   111   106   am
    49   112   113    1
    50    56    55    2
    51    20    21    1
    52    57    58    1
    53    57    54    1
    54   105   106    1
    55   105   104    1
    56   113   114    2
    57   106   107    2
    58    21    22    1
    59    21    23    1
    60    55    54    1
    61    15    14    1
    62    53    54    1
    63    14    13    1
    64    12    13    1
    65    12    11    1
    66   102   101    2
    67     7     8    1
    68   104   101   am
    69     8    11    1
    70     8     9    1
    71   101   100    1
    72     1     2    1
    73     6     5    1
    74    10     9    2
    75    36    35    2
    76     2     5    1
    77     2     3    1
    78    35    34    1
    79     3     4    2
    80   100    99    1
    81   100   103    1
    82    41    39   ar
    83    41    43   ar
    84    44    43    1
    85    34    33    1
    86    34    37    1
    87    39    38   ar
    88    43    42   ar
    89   122   120   am
    90    38    37    1
    91    38    40   ar
    92    42    40   ar
    93   119   120    1
    94   119   116    1
    95   120   121    2
    96    98    96    1
    97    97    96    1
    98   115   116    1
    99   116   117    1
   100    94    93    2
   101    96    95    1
   102    95    92    1
   103   118   117    2
   104    93    92    1
   105    92    91    1
   106    90    88   am
   107    89    88    2
   108    88    87    1
   109   133   131    1
   110   132   131    1
   111    87    84    1
   112   131   130    2
   113    86    85    2
   114    85    84    1
   115    84    83    1
   116   130   129    1
   117   129   128    1
   118   128   127    1
   119   127   124    1
   120   124   123    1
   121   124   125    1
   122   125   126    2
