@<TRIPOS>MOLECULE
tmp/2rcyA00.pdb
 169 161 0 0 0
SMALL
GASTEIGER

@<TRIPOS>ATOM
      1  N         50.0120   49.6020   19.3460 N.3     9  GLY9       -0.1210
      2  CA        51.0820   49.5740   18.3520 C.3     9  GLY9        0.1956
      3  C         50.5440   49.3810   16.9460 C.2     9  GLY9        0.2612
      4  O         49.7650   48.4590   16.6950 O.2     9  GLY9       -0.2717
      5  N         50.9490   50.2600   16.0320 N.am   10  LEU10      -0.1965
      6  CA        50.5750   50.1390   14.6220 C.3    10  LEU10       0.1728
      7  C         51.7970   50.0500   13.7120 C.2    10  LEU10       0.2617
      8  O         52.0450   50.9390   12.8930 O.2    10  LEU10      -0.2715
      9  CB        49.6650   51.2920   14.1780 C.3    10  LEU10       0.0311
     10  CG        48.1500   51.2500   14.4020 C.3    10  LEU10       0.0022
     11  CD1       47.4860   52.1930   13.4150 C.3    10  LEU10       0.0001
     12  CD2       47.5570   49.8550   14.2590 C.3    10  LEU10       0.0001
     13  N         52.5560   48.9690   13.8600 N.am   11  GLY11      -0.1940
     14  CA        53.7260   48.7320   13.0230 C.3    11  GLY11       0.2014
     15  C         53.3390   48.1370   11.6880 C.2    11  GLY11       0.2638
     16  O         52.3310   48.5210   11.0970 O.2    11  GLY11      -0.2714
     17  N         54.1420   47.1920   11.2120 N.am   12  GLN12      -0.1977
     18  CA        53.8690   46.5360    9.9390 C.3    12  GLN12       0.1601
     19  C         52.7190   45.5400   10.0440 C.2    12  GLN12       0.2287
     20  O         51.9260   45.4040    9.1120 O.2    12  GLN12      -0.2864
     21  CB        55.1270   45.8600    9.3900 C.3    12  GLN12       0.0394
     22  CG        56.2210   46.8280    8.9300 C.3    12  GLN12       0.0908
     23  CD        55.8560   47.6150    7.6760 C.2    12  GLN12       0.2608
     24  OE1       54.8810   47.3080    6.9880 O.2    12  GLN12      -0.2717
     25  NE2       56.6490   48.6350    7.3730 N.am   12  GLN12      -0.0878
     26  N         50.5380   45.4990   12.9290 N.3    13  GLY13      -0.1225
     27  CA        49.4570   46.2420   13.5720 C.3    13  GLY13       0.1811
     28  C         48.5650   46.9650   12.5810 C.2    13  GLY13       0.2280
     29  O         47.3420   46.8390   12.6400 O.2    13  GLY13      -0.2866
     30  N         47.1550   53.1840   19.7510 N.3    34  TYR34      -0.1227
     31  CA        48.2060   54.0260   20.3240 C.3    34  TYR34       0.1736
     32  C         49.5950   53.6090   19.8470 C.2    34  TYR34       0.2596
     33  O         49.8870   52.4220   19.6980 O.2    34  TYR34      -0.2718
     34  CB        48.1660   54.0430   21.8600 C.3    34  TYR34       0.0548
     35  CG        49.4070   54.6680   22.4800 C.ar   34  TYR34      -0.0200
     36  CD1       49.5700   56.0530   22.5230 C.ar   34  TYR34      -0.0009
     37  CD2       50.4310   53.8710   22.9940 C.ar   34  TYR34      -0.0009
     38  CE1       50.7130   56.6260   23.0750 C.ar   34  TYR34       0.0417
     39  CE2       51.5750   54.4340   23.5490 C.ar   34  TYR34       0.0417
     40  CZ        51.7090   55.8110   23.5860 C.ar   34  TYR34       0.1957
     41  OH        52.8390   56.3710   24.1340 O.3    34  TYR34      -0.2866
     42  N         50.4390   54.6110   19.6170 N.am   35  GLY35      -0.1943
     43  CA        51.8590   54.4180   19.3510 C.3    35  GLY35       0.1998
     44  C         52.6370   55.6210   19.8570 C.2    35  GLY35       0.2481
     45  O         52.0530   56.6880   20.0640 O.2    35  GLY35      -0.2729
     46  N         53.9600   55.4640   20.0640 N.am   36  PRO36      -0.2715
     47  CA        54.8080   56.5830   20.4910 C.3    36  PRO36       0.1536
     48  C         54.8650   57.7000   19.4460 C.2    36  PRO36       0.2599
     49  O         55.2790   58.8180   19.7560 O.2    36  PRO36      -0.2715
     50  CB        56.1870   55.9360   20.6650 C.3    36  PRO36       0.0310
     51  CG        56.1430   54.7010   19.8380 C.3    36  PRO36       0.0237
     52  CD        54.7320   54.2190   19.9120 C.3    36  PRO36       0.0939
     53  N         54.4510   57.3790   18.2220 N.am   37  SER37      -0.1950
     54  CA        54.3070   58.3520   17.1470 C.3    37  SER37       0.1924
     55  C         53.0020   58.1000   16.3990 C.2    37  SER37       0.2314
     56  O         52.6290   56.9480   16.1610 O.2    37  SER37      -0.2863
     57  CB        55.4900   58.2680   16.1820 C.3    37  SER37       0.2116
     58  OG        56.7060   58.5810   16.8370 O.3    37  SER37      -0.2180
     59  N         50.3560   57.6990   13.4400 N.3    39  LYS39      -0.1245
     60  CA        50.5070   56.9940   12.1730 C.3    39  LYS39       0.1561
     61  C         49.5050   57.4840   11.1300 C.2    39  LYS39       0.2260
     62  O         48.4360   57.9930   11.4750 O.2    39  LYS39      -0.2867
     63  CB        50.3480   55.4860   12.3920 C.3    39  LYS39       0.0271
     64  CG        51.4350   54.6400   11.7450 C.3    39  LYS39       0.0035
     65  CD        52.7010   54.6170   12.5980 C.3    39  LYS39       0.0206
     66  CE        53.7960   53.7880   11.9490 C.3    39  LYS39       0.1093
     67  NZ        55.0240   53.7420   12.7870 N.3    39  LYS39      -0.1314
     68  N         48.2720   53.5440   26.0990 N.3    48  ASN48      -0.1240
     69  CA        47.8020   52.1590   26.1260 C.3    48  ASN48       0.1653
     70  C         46.8230   51.9010   27.2660 C.2    48  ASN48       0.2266
     71  O         45.9040   51.0920   27.1300 O.2    48  ASN48      -0.2867
     72  CB        48.9820   51.1880   26.2330 C.3    48  ASN48       0.1155
     73  CG        49.8000   51.1070   24.9550 C.2    48  ASN48       0.2627
     74  OD1       51.0260   51.0170   25.0010 O.2    48  ASN48      -0.2716
     75  ND2       49.1260   51.1330   23.8090 N.am   48  ASN48      -0.0877
     76  N         49.9660   44.5760   19.7730 N.3    61  ALA61      -0.1231
     77  CA        50.6410   44.5290   18.4750 C.3    61  ALA61       0.1694
     78  C         52.0610   45.1010   18.5170 C.2    61  ALA61       0.2592
     79  O         52.5800   45.5790   17.5050 O.2    61  ALA61      -0.2718
     80  CB        49.7980   45.2380   17.4150 C.3    61  ALA61       0.0304
     81  N         52.6830   45.0480   19.6920 N.am   62  VAL62      -0.1966
     82  CA        54.0650   45.4980   19.8600 C.3    62  VAL62       0.1727
     83  C         55.0410   44.3370   19.6790 C.2    62  VAL62       0.2616
     84  O         54.6330   43.1730   19.6760 O.2    62  VAL62      -0.2715
     85  CB        54.3030   46.1670   21.2460 C.3    62  VAL62       0.0290
     86  CG1       53.5310   47.4680   21.3580 C.3    62  VAL62       0.0023
     87  CG2       53.9400   45.2250   22.3870 C.3    62  VAL62       0.0023
     88  N         56.3240   44.6620   19.5250 N.am   63  LYS63      -0.1964
     89  CA        57.3920   43.6630   19.5160 C.3    63  LYS63       0.1713
     90  C         57.4350   42.9230   20.8580 C.2    63  LYS63       0.2458
     91  O         57.1800   43.5270   21.9010 O.2    63  LYS63      -0.2730
     92  CB        58.7400   44.3270   19.2210 C.3    63  LYS63       0.0311
     93  CG        58.9730   44.6460   17.7420 C.3    63  LYS63       0.0038
     94  CD        60.0930   45.6650   17.5420 C.3    63  LYS63       0.0206
     95  CE        61.4580   45.0880   17.8920 C.3    63  LYS63       0.1093
     96  NZ        62.5400   46.1070   17.8230 N.3    63  LYS63      -0.1314
     97  N         57.7470   41.6110   20.8340 N.am   64  PRO64      -0.2727
     98  CA        57.6950   40.7720   22.0380 C.3    64  PRO64       0.1402
     99  C         58.6320   41.2060   23.1680 C.2    64  PRO64       0.2269
    100  O         58.3530   40.9220   24.3350 O.2    64  PRO64      -0.2865
    101  CB        58.1050   39.3890   21.5170 C.3    64  PRO64       0.0296
    102  CG        57.8230   39.4330   20.0580 C.3    64  PRO64       0.0237
    103  CD        58.1620   40.8280   19.6570 C.3    64  PRO64       0.0939
    104  N         59.2670   44.3010   24.1300 N.3    66  ILE66      -0.1245
    105  CA        58.6510   45.4040   24.8790 C.3    66  ILE66       0.1561
    106  C         57.2080   45.1090   25.3030 C.2    66  ILE66       0.2260
    107  O         56.5520   45.9480   25.9250 O.2    66  ILE66      -0.2867
    108  CB        58.7020   46.7510   24.1060 C.3    66  ILE66       0.0252
    109  CG1       58.1410   46.5930   22.6870 C.3    66  ILE66       0.0019
    110  CG2       60.1220   47.3060   24.0940 C.3    66  ILE66       0.0019
    111  CD1       57.6500   47.8830   22.0660 C.3    66  ILE66       0.0001
    112  N         54.4760   46.9170   28.4450 N.3    70  VAL70      -0.1245
    113  CA        53.2090   47.4380   27.9190 C.3    70  VAL70       0.1561
    114  C         52.0090   46.7320   28.5580 C.2    70  VAL70       0.2260
    115  O         51.0440   47.3830   28.9670 O.2    70  VAL70      -0.2867
    116  CB        53.1470   47.3370   26.3640 C.3    70  VAL70       0.0252
    117  CG1       51.7500   47.6550   25.8420 C.3    70  VAL70       0.0019
    118  CG2       54.1670   48.2700   25.7250 C.3    70  VAL70       0.0019
    119  N         49.0800   39.2050   19.4550 N.3    86  ILE86      -0.1231
    120  CA        49.6350   38.7450   18.1790 C.3    86  ILE86       0.1692
    121  C         51.1590   38.6010   18.2370 C.2    86  ILE86       0.2592
    122  O         51.8020   38.3300   17.2200 O.2    86  ILE86      -0.2718
    123  CB        49.2050   39.6370   16.9730 C.3    86  ILE86       0.0266
    124  CG1       49.7330   41.0690   17.1210 C.3    86  ILE86       0.0019
    125  CG2       47.6870   39.6090   16.7950 C.3    86  ILE86       0.0020
    126  CD1       49.8130   41.8390   15.8180 C.3    86  ILE86       0.0001
    127  N         51.7180   38.7740   19.4340 N.am   87  CYS87      -0.1956
    128  CA        53.1600   38.6720   19.6590 C.3    87  CYS87       0.1843
    129  C         53.6850   37.2720   19.3680 C.2    87  CYS87       0.2626
    130  O         53.1230   36.2780   19.8330 O.2    87  CYS87      -0.2714
    131  CB        53.5190   39.0770   21.0910 C.3    87  CYS87       0.0997
    132  SG        53.3040   40.8320   21.4550 S.3    87  CYS87      -0.0797
    133  N         54.7600   37.2120   18.5880 N.am   88  GLY88      -0.1954
    134  CA        55.3940   35.9500   18.2250 C.3    88  GLY88       0.1869
    135  C         56.2170   35.3700   19.3560 C.2    88  GLY88       0.2309
    136  O         56.9710   36.0860   20.0190 O.2    88  GLY88      -0.2863
    137  N         48.5180   36.0940   13.1940 N.3   108  PRO108     -0.2102
    138  CA        48.1070   36.5800   11.8810 C.3   108  PRO108      0.1504
    139  C         49.2400   36.6350   10.8540 C.2   108  PRO108      0.2576
    140  O         50.3820   36.2920   11.1650 O.2   108  PRO108     -0.2718
    141  CB        47.6360   37.9990   12.1940 C.3   108  PRO108      0.0282
    142  CG        48.5070   38.4360   13.3510 C.3   108  PRO108      0.0208
    143  CD        49.0440   37.1930   14.0270 C.3   108  PRO108      0.0893
    144  N         48.9050   37.0520    9.6350 N.am  109  ASN109     -0.1961
    145  CA        49.9010   37.4440    8.6380 C.3   109  ASN109      0.1819
    146  C         49.4610   38.6920    7.8640 C.2   109  ASN109      0.2621
    147  O         48.2830   39.0470    7.8870 O.2   109  ASN109     -0.2715
    148  CB        50.2740   36.2770    7.7060 C.3   109  ASN109      0.1195
    149  CG        49.0850   35.7120    6.9400 C.2   109  ASN109      0.2630
    150  OD1       48.0310   36.3380    6.8380 O.2   109  ASN109     -0.2716
    151  ND2       49.2630   34.5200    6.3850 N.am  109  ASN109     -0.0877
    152  N         50.4050   39.3480    7.1870 N.am  110  THR110     -0.1951
    153  CA        50.1360   40.6210    6.4950 C.3   110  THR110      0.1897
    154  C         49.0590   40.5940    5.3900 C.2   110  THR110      0.2313
    155  O         48.3800   41.6040    5.1920 O.2   110  THR110     -0.2863
    156  CB        51.4280   41.2920    5.9500 C.3   110  THR110      0.1794
    157  OG1       52.1180   40.3920    5.0750 O.3   110  THR110     -0.2208
    158  CG2       52.3490   41.7060    7.0930 C.3   110  THR110      0.0378
    159  N         52.9910   29.3580   13.3420 N.3   156  THR156     -0.1218
    160  CA        53.6060   30.6750   13.1630 C.3   156  THR156      0.1862
    161  C         54.6450   30.6290   12.0430 C.2   156  THR156      0.2287
    162  O         54.6890   31.5150   11.1910 O.2   156  THR156     -0.2866
    163  CB        54.2770   31.1670   14.4720 C.3   156  THR156      0.1770
    164  OG1       53.3220   31.1520   15.5410 O.3   156  THR156     -0.2211
    165  CG2       54.8340   32.5770   14.3150 C.3   156  THR156      0.0375
    166  N         52.3310   32.5430    9.8250 N.3   160  GLY160     -0.1225
    167  CA        52.8260   33.8690   10.1840 C.3   160  GLY160      0.1811
    168  C         54.0120   34.3070    9.3450 C.2   160  GLY160      0.2280
    169  O         54.0140   35.4110    8.8000 O.2   160  GLY160     -0.2866
@<TRIPOS>BOND
     1   157   156    1
     2   155   154    2
     3   154   153    1
     4   156   153    1
     5   156   158    1
     6   151   149   am
     7   153   152    1
     8   150   149    2
     9   149   148    1
    10    24    23    2
    11   152   146   am
    12    25    23   am
    13    23    22    1
    14   148   145    1
    15   146   147    2
    16   146   145    1
    17   145   144    1
    18   169   168    2
    19    22    21    1
    20    20    19    2
    21   168   167    1
    22    21    18    1
    23   144   139   am
    24   166   167    1
    25    18    19    1
    26    18    17    1
    27   139   140    2
    28   139   138    1
    29    16    15    2
    30    61    62    2
    31    61    60    1
    32   162   161    2
    33    17    15   am
    34    15    14    1
    35    64    63    1
    36    64    65    1
    37   138   141    1
    38   138   137    1
    39    66    65    1
    40    66    67    1
    41   161   160    1
    42    60    63    1
    43    60    59    1
    44   141   142    1
    45    28    29    2
    46    28    27    1
    47     8     7    2
    48    26    27    1
    49    14    13    1
    50   160   159    1
    51   160   163    1
    52   137   143    1
    53   142   143    1
    54    11    10    1
    55     7    13   am
    56     7     6    1
    57     9    10    1
    58     9     6    1
    59    12    10    1
    60   165   163    1
    61   163   164    1
    62     6     5    1
    63   126   124    1
    64     5     3   am
    65    56    55    2
    66    57    58    1
    67    57    54    1
    68    55    54    1
    69     4     3    2
    70   125   123    1
    71     3     2    1
    72   123   124    1
    73   123   120    1
    74    54    53    1
    75   122   121    2
    76    80    77    1
    77    79    78    2
    78    94    93    1
    79    94    95    1
    80    93    92    1
    81    96    95    1
    82   120   121    1
    83   120   119    1
    84    53    48   am
    85   134   133    1
    86   134   135    1
    87   121   127   am
    88     2     1    1
    89    77    78    1
    90    77    76    1
    91    78    81   am
    92   133   129   am
    93    92    89    1
    94    43    42    1
    95    43    44    1
    96   135   136    2
    97   129   128    1
    98   129   130    2
    99   127   128    1
   100    48    49    2
   101    48    47    1
   102    89    88    1
   103    89    90    1
   104    88    83   am
   105    42    32   am
   106   103   102    1
   107   103    97    1
   108   128   131    1
   109    84    83    2
   110    83    82    1
   111    81    82    1
   112    33    32    2
   113    30    31    1
   114    51    52    1
   115    51    50    1
   116    32    31    1
   117    44    46   am
   118    44    45    2
   119    82    85    1
   120    52    46    1
   121   102   101    1
   122    46    47    1
   123    31    34    1
   124    47    50    1
   125    97    90   am
   126    97    98    1
   127    90    91    2
   128   131   132    1
   129    85    86    1
   130    85    87    1
   131   101    98    1
   132    34    35    1
   133    98    99    1
   134   111   109    1
   135    35    36   ar
   136    35    37   ar
   137    36    38   ar
   138   109   108    1
   139    37    39   ar
   140    38    40   ar
   141    99   100    2
   142    39    40   ar
   143    40    41    1
   144    75    73   am
   145   110   108    1
   146   108   105    1
   147   104   105    1
   148   105   106    1
   149    73    74    2
   150    73    72    1
   151   106   107    2
   152   118   116    1
   153   117   116    1
   154    68    69    1
   155    69    72    1
   156    69    70    1
   157   116   113    1
   158    71    70    2
   159   113   112    1
   160   113   114    1
   161   114   115    2
