@<TRIPOS>MOLECULE
tmp/2rd4B00.pdb
 187 186 0 0 0
SMALL
GASTEIGER

@<TRIPOS>ATOM
      1  N          2.2020   14.2840    3.1760 N.3     1  ASN1       -0.1225
      2  CA         1.5960   15.2000    2.1750 C.3     1  ASN1        0.1785
      3  C          0.2330   14.6880    1.7200 C.2     1  ASN1        0.2597
      4  O         -0.0910   13.5170    1.8990 O.2     1  ASN1       -0.2718
      5  CB         2.5350   15.3530    0.9630 C.3     1  ASN1        0.1169
      6  CG         2.9310   14.0140    0.3390 C.2     1  ASN1        0.2627
      7  OD1        2.0780   13.2340   -0.0930 O.2     1  ASN1       -0.2716
      8  ND2        4.2340   13.7520    0.2820 N.am    1  ASN1       -0.0877
      9  N         -0.5570   15.5820    1.1350 N.am    2  ARG2       -0.1966
     10  CA        -1.8960   15.2780    0.6280 C.3     2  ARG2        0.1729
     11  C         -2.0320   13.8700    0.0450 C.2     2  ARG2        0.2616
     12  O         -2.9830   13.1560    0.3580 O.2     2  ARG2       -0.2715
     13  CB        -2.2770   16.3300   -0.4330 C.3     2  ARG2        0.0348
     14  CG        -3.1800   15.8420   -1.5720 C.3     2  ARG2        0.0492
     15  CD        -4.6540   16.0720   -1.3280 C.3     2  ARG2        0.2205
     16  NE        -5.0400   16.0090    0.0780 N.pl3   2  ARG2       -0.0865
     17  CZ        -4.3350   16.4710    1.1070 C.cat   2  ARG2        0.5346
     18  NH1       -3.4940   17.4820    0.9320 N.pl3   2  ARG2        0.1354
     19  NH2       -4.4690   15.9230    2.3070 N.pl3   2  ARG2        0.1354
     20  N         -1.0730   13.4790   -0.7930 N.am    3  TRP3       -0.1974
     21  CA        -1.0840   12.1750   -1.4500 C.3     3  TRP3        0.1640
     22  C         -1.0470   11.0210   -0.4660 C.2     3  TRP3        0.2290
     23  O         -1.7490   10.0230   -0.6530 O.2     3  TRP3       -0.2864
     24  CB         0.1080   12.0430   -2.3970 C.3     3  TRP3        0.0576
     25  CG        -0.0980   11.0050   -3.4560 C.ar    3  TRP3        0.0006
     26  CD1       -0.8060   11.1420   -4.6360 C.ar    3  TRP3        0.0946
     27  CD2        0.3310    9.6490   -3.4090 C.ar    3  TRP3        0.0152
     28  NE1       -0.8310    9.9480   -5.3180 N.ar    3  TRP3       -0.2442
     29  CE2       -0.1300    9.0130   -4.5920 C.ar    3  TRP3        0.0810
     30  CE3        1.0900    8.9040   -2.4930 C.ar    3  TRP3        0.0012
     31  CZ2        0.1060    7.6670   -4.8630 C.ar    3  TRP3        0.0191
     32  CZ3        1.3280    7.5650   -2.7650 C.ar    3  TRP3        0.0001
     33  CH2        0.8500    6.9640   -3.9440 C.ar    3  TRP3        0.0015
     34  N         -2.0760   11.0210    2.6200 N.3     5  PHE5       -0.1227
     35  CA        -3.3370   10.9610    3.3380 C.3     5  PHE5        0.1736
     36  C         -4.3590   10.1820    2.5180 C.2     5  PHE5        0.2595
     37  O         -5.3120    9.6330    3.0640 O.2     5  PHE5       -0.2718
     38  CB        -3.8390   12.3750    3.6550 C.3     5  PHE5        0.0547
     39  CG        -5.1630   12.4050    4.3530 C.ar    5  PHE5       -0.0202
     40  CD1       -5.4630   11.4820    5.3470 C.ar    5  PHE5       -0.0042
     41  CD2       -6.1200   13.3570    4.0110 C.ar    5  PHE5       -0.0042
     42  CE1       -6.7000   11.5000    5.9880 C.ar    5  PHE5       -0.0003
     43  CE2       -7.3580   13.3920    4.6420 C.ar    5  PHE5       -0.0003
     44  CZ        -7.6500   12.4590    5.6350 C.ar    5  PHE5       -0.0000
     45  N         -4.1560   10.1180    1.2070 N.am    6  LYS6       -0.1980
     46  CA        -5.0700    9.3630    0.3540 C.3     6  LYS6        0.1596
     47  C         -4.7970    7.8780    0.5290 C.2     6  LYS6        0.2287
     48  O         -5.7210    7.0640    0.5290 O.2     6  LYS6       -0.2864
     49  CB        -4.9170    9.7810   -1.1140 C.3     6  LYS6        0.0298
     50  CG        -5.4670   11.1780   -1.3660 C.3     6  LYS6        0.0038
     51  CD        -5.2270   11.6650   -2.7720 C.3     6  LYS6        0.0206
     52  CE        -5.5480   13.1490   -2.8890 C.3     6  LYS6        0.1093
     53  NZ        -5.3490   13.6420   -4.2800 N.3     6  LYS6       -0.1314
     54  N         -6.3090    6.5690    3.7230 N.3     9  ILE9       -0.1245
     55  CA        -7.7290    6.2910    3.5720 C.3     9  ILE9        0.1561
     56  C         -7.8760    4.9900    2.7990 C.2     9  ILE9        0.2260
     57  O         -8.7950    4.2060    3.0310 O.2     9  ILE9       -0.2867
     58  CB        -8.4550    7.4250    2.8240 C.3     9  ILE9        0.0252
     59  CG1       -8.3730    8.7000    3.6560 C.3     9  ILE9        0.0019
     60  CG2       -9.9140    7.0360    2.5500 C.3     9  ILE9        0.0019
     61  CD1       -9.1160    9.8350    3.0770 C.3     9  ILE9        0.0001
     62  N        -10.6450    7.7940   -2.4450 N.3    18  TRP18      -0.1241
     63  CA       -10.5260    8.9430   -1.5580 C.3    18  TRP18       0.1605
     64  C        -11.4690   10.0550   -2.0230 C.2    18  TRP18       0.2264
     65  O        -11.7060   11.0210   -1.2950 O.2    18  TRP18      -0.2867
     66  CB        -9.0820    9.4630   -1.4960 C.3    18  TRP18       0.0550
     67  CG        -8.5490    9.9780   -2.7920 C.ar   18  TRP18       0.0003
     68  CD1       -7.8700    9.2680   -3.7430 C.ar   18  TRP18       0.0946
     69  CD2       -8.7080   11.3040   -3.3190 C.ar   18  TRP18       0.0152
     70  NE1       -7.6000   10.0690   -4.8290 N.ar   18  TRP18      -0.2442
     71  CE2       -8.1020   11.3210   -4.5950 C.ar   18  TRP18       0.0810
     72  CE3       -9.3040   12.4790   -2.8350 C.ar   18  TRP18       0.0012
     73  CZ2       -8.0790   12.4640   -5.3970 C.ar   18  TRP18       0.0191
     74  CZ3       -9.2800   13.6200   -3.6340 C.ar   18  TRP18       0.0001
     75  CH2       -8.6700   13.6020   -4.9020 C.ar   18  TRP18       0.0015
     76  N        -14.6270   11.1620    0.0120 N.3    21  PHE21      -0.1227
     77  CA       -14.4090   12.0020    1.1730 C.3    21  PHE21       0.1736
     78  C        -14.0320   13.3960    0.7230 C.2    21  PHE21       0.2595
     79  O        -14.0790   14.3360    1.5060 O.2    21  PHE21      -0.2718
     80  CB       -13.2970   11.4160    2.0350 C.3    21  PHE21       0.0547
     81  CG       -13.5740   10.0140    2.4920 C.ar   21  PHE21      -0.0202
     82  CD1      -13.0150    8.9250    1.8280 C.ar   21  PHE21      -0.0042
     83  CD2      -14.4230    9.7800    3.5660 C.ar   21  PHE21      -0.0042
     84  CE1      -13.3020    7.6180    2.2240 C.ar   21  PHE21      -0.0003
     85  CE2      -14.7180    8.4880    3.9680 C.ar   21  PHE21      -0.0003
     86  CZ       -14.1540    7.3990    3.2950 C.ar   21  PHE21      -0.0000
     87  N        -13.6700   13.5170   -0.5500 N.am   22  ALA22      -0.1980
     88  CA       -13.2690   14.7930   -1.1340 C.3    22  ALA22       0.1597
     89  C        -14.2810   15.8910   -0.8830 C.2    22  ALA22       0.2287
     90  O        -13.9190   16.9860   -0.4830 O.2    22  ALA22      -0.2864
     91  CB       -13.0390   14.6360   -2.6290 C.3    22  ALA22       0.0319
     92  N        -17.6200   19.5240    6.1670 N.3    27  TYR27      -0.1241
     93  CA       -16.1890   19.5230    6.4320 C.3    27  TYR27       0.1605
     94  C        -15.2750   18.6890    5.5330 C.2    27  TYR27       0.2264
     95  O        -14.2920   19.2260    5.0300 O.2    27  TYR27      -0.2867
     96  CB       -15.9360   19.1980    7.9070 C.3    27  TYR27       0.0534
     97  CG       -16.3930   20.3290    8.7920 C.ar   27  TYR27      -0.0201
     98  CD1      -17.6900   20.3600    9.3050 C.ar   27  TYR27      -0.0009
     99  CD2      -15.5670   21.4290    9.0220 C.ar   27  TYR27      -0.0009
    100  CE1      -18.1540   21.4630   10.0170 C.ar   27  TYR27       0.0417
    101  CE2      -16.0190   22.5330    9.7290 C.ar   27  TYR27       0.0417
    102  CZ       -17.3130   22.5460   10.2210 C.ar   27  TYR27       0.1957
    103  OH       -17.7710   23.6530   10.8970 O.3    27  TYR27      -0.2866
    104  N        -13.1900   17.6450    2.8380 N.3    29  GLY29      -0.1210
    105  CA       -12.8410   18.3370    1.6100 C.3    29  GLY29       0.1956
    106  C        -12.4670   19.7410    2.0320 C.2    29  GLY29       0.2611
    107  O        -12.7450   20.1000    3.1570 O.2    29  GLY29      -0.2717
    108  N        -11.8680   20.5410    1.1560 N.am   30  ARG30      -0.1979
    109  CA       -11.4530   21.9070    1.5090 C.3    30  ARG30       0.1597
    110  C        -12.3740   22.6950    2.4460 C.2    30  ARG30       0.2287
    111  O        -13.5180   22.3150    2.6830 O.2    30  ARG30      -0.2864
    112  CB       -11.2300   22.7310    0.2350 C.3    30  ARG30       0.0334
    113  CG        -9.8290   23.3180    0.1080 C.3    30  ARG30       0.0492
    114  CD        -9.1100   22.7810   -1.1210 C.3    30  ARG30       0.2205
    115  NE        -9.2780   23.5890   -2.3330 N.pl3  30  ARG30      -0.0865
    116  CZ        -8.7430   23.2930   -3.5210 C.cat  30  ARG30       0.5346
    117  NH1       -8.0040   22.1970   -3.6830 N.pl3  30  ARG30       0.1354
    118  NH2       -8.9210   24.1160   -4.5480 N.pl3  30  ARG30       0.1354
    119  N        -13.9280   14.8820    9.9360 N.3    44  CYS44      -0.1235
    120  CA       -13.2620   15.8480    9.0820 C.3    44  CYS44       0.1677
    121  C        -13.1000   17.2320    9.7050 C.2    44  CYS44       0.2270
    122  O        -12.1200   17.9380    9.4300 O.2    44  CYS44      -0.2867
    123  CB       -13.9960   15.9280    7.7490 C.3    44  CYS44       0.0956
    124  SG       -13.9390   14.3520    6.8380 S.3    44  CYS44      -0.0801
    125  N        -10.3030   16.8390   11.9020 N.3    47  HIS47      -0.1226
    126  CA        -9.1020   16.7980   11.0890 C.3    47  HIS47       0.1752
    127  C         -8.6640   18.1870   10.6820 C.2    47  HIS47       0.2596
    128  O         -7.4750   18.4630   10.5730 O.2    47  HIS47      -0.2718
    129  CB        -9.3150   15.9570    9.8320 C.3    47  HIS47       0.0759
    130  CG        -8.0540   15.7160    9.0560 C.ar   47  HIS47       0.0818
    131  ND1       -7.7880   16.3340    7.8620 N.ar   47  HIS47      -0.2268
    132  CD2       -6.9750   14.9490    9.3410 C.ar   47  HIS47       0.1154
    133  CE1       -6.5900   15.9560    7.4290 C.ar   47  HIS47       0.1986
    134  NE2       -6.0820   15.1210    8.3080 N.ar   47  HIS47      -0.2212
    135  N         -9.6240   19.0660   10.4350 N.am   48  ASP48      -0.1974
    136  CA        -9.2770   20.4210   10.0480 C.3    48  ASP48       0.1709
    137  C         -8.6610   21.1300   11.2230 C.2    48  ASP48       0.2293
    138  O         -7.6420   21.7860   11.0740 O.2    48  ASP48      -0.2864
    139  CB       -10.5080   21.1720    9.5680 C.3    48  ASP48       0.1436
    140  CG       -10.9920   20.6640    8.2460 C.2    48  ASP48       0.3671
    141  OD1      -10.1260   20.4680    7.3700 O.co2  48  ASP48      -0.2456
    142  OD2      -12.2130   20.4660    8.0770 O.co2  48  ASP48      -0.2456
    143  N         -5.0950   20.1400   11.6350 N.3    51  TYR51      -0.1241
    144  CA        -4.2240   20.7640   10.6450 C.3    51  TYR51       0.1605
    145  C         -3.9540   22.1960   11.0310 C.2    51  TYR51       0.2264
    146  O         -2.8740   22.7260   10.7770 O.2    51  TYR51      -0.2867
    147  CB        -4.8970   20.7620    9.2790 C.3    51  TYR51       0.0534
    148  CG        -4.4820   19.6390    8.3680 C.ar   51  TYR51      -0.0201
    149  CD1       -4.0750   18.4120    8.8830 C.ar   51  TYR51      -0.0009
    150  CD2       -4.5690   19.7770    6.9810 C.ar   51  TYR51      -0.0009
    151  CE1       -3.7740   17.3520    8.0480 C.ar   51  TYR51       0.0417
    152  CE2       -4.2720   18.7180    6.1390 C.ar   51  TYR51       0.0417
    153  CZ        -3.8790   17.5070    6.6830 C.ar   51  TYR51       0.1957
    154  OH        -3.6240   16.4380    5.8670 O.3    51  TYR51      -0.2866
    155  N         -0.3930   19.9580    3.9730 N.3    63  ARG63      -0.1231
    156  CA        -0.6660   19.4740    2.6240 C.3    63  ARG63       0.1694
    157  C          0.5590   19.0790    1.7900 C.2    63  ARG63       0.2592
    158  O          0.4270   18.3800    0.7810 O.2    63  ARG63      -0.2718
    159  CB        -1.4890   20.5280    1.8720 C.3    63  ARG63       0.0321
    160  CG        -2.8900   20.0840    1.5220 C.3    63  ARG63       0.0489
    161  CD        -3.8090   19.8700    2.7220 C.3    63  ARG63       0.2205
    162  NE        -4.2910   21.1080    3.3340 N.pl3  63  ARG63      -0.0865
    163  CZ        -5.5180   21.2560    3.8320 C.cat  63  ARG63       0.5346
    164  NH1       -6.3780   20.2490    3.7720 N.pl3  63  ARG63       0.1354
    165  NH2       -5.8840   22.3940    4.4140 N.pl3  63  ARG63       0.1354
    166  N          1.7450   19.5210    2.2040 N.am   64  PHE64      -0.1976
    167  CA         2.9640   19.2120    1.4650 C.3    64  PHE64       0.1639
    168  C          3.9860   18.4470    2.3040 C.2    64  PHE64       0.2290
    169  O          4.7480   17.6340    1.7830 O.2    64  PHE64      -0.2864
    170  CB         3.5920   20.5030    0.9370 C.3    64  PHE64       0.0560
    171  CG         2.7510   21.2160   -0.0850 C.ar   64  PHE64      -0.0200
    172  CD1        2.9050   20.9510   -1.4390 C.ar   64  PHE64      -0.0042
    173  CD2        1.7730   22.1220    0.3140 C.ar   64  PHE64      -0.0042
    174  CE1        2.0990   21.5710   -2.3830 C.ar   64  PHE64      -0.0003
    175  CE2        0.9560   22.7510   -0.6240 C.ar   64  PHE64      -0.0003
    176  CZ         1.1190   22.4730   -1.9760 C.ar   64  PHE64      -0.0000
    177  N        -12.6590    7.6980    9.8270 N.3   100  PHE100     -0.1241
    178  CA       -13.5400    7.4870    8.6820 C.3   100  PHE100      0.1605
    179  C        -13.9590    6.0180    8.6940 C.2   100  PHE100      0.2264
    180  O        -15.1320    5.6970    8.5050 O.2   100  PHE100     -0.2867
    181  CB       -12.8240    7.8040    7.3540 C.3   100  PHE100      0.0534
    182  CG       -12.4700    9.2640    7.1620 C.ar  100  PHE100     -0.0203
    183  CD1      -12.7670   10.2190    8.1380 C.ar  100  PHE100     -0.0042
    184  CD2      -11.8230    9.6820    5.9990 C.ar  100  PHE100     -0.0042
    185  CE1      -12.4220   11.5700    7.9550 C.ar  100  PHE100     -0.0003
    186  CE2      -11.4750   11.0250    5.8070 C.ar  100  PHE100     -0.0003
    187  CZ       -11.7740   11.9690    6.7860 C.ar  100  PHE100     -0.0000
@<TRIPOS>BOND
     1    73    75   ar
     2    73    71   ar
     3    28    26   ar
     4    28    29   ar
     5    75    74   ar
     6    31    29   ar
     7    31    33   ar
     8    70    71   ar
     9    70    68   ar
    10    26    25   ar
    11    71    69   ar
    12    29    27   ar
    13   118   116    1
    14    53    52    1
    15    33    32   ar
    16    68    67   ar
    17   117   116    1
    18    74    72   ar
    19   116   115    2
    20    25    27   ar
    21    25    24    1
    22    27    30   ar
    23    69    72   ar
    24    69    67   ar
    25    52    51    1
    26    67    66    1
    27    51    50    1
    28    32    30   ar
    29    91    88    1
    30    62    63    1
    31    24    21    1
    32   174   176   ar
    33   174   172   ar
    34   115   114    1
    35    64    63    1
    36    64    65    2
    37   176   175   ar
    38    14    15    1
    39    14    13    1
    40    63    66    1
    41    21    20    1
    42    21    22    1
    43   172   171   ar
    44    50    49    1
    45    15    16    1
    46    88    89    1
    47    88    87    1
    48   114   113    1
    49    49    46    1
    50    89    90    2
    51    20    11   am
    52    23    22    2
    53   175   173   ar
    54    87    78   am
    55    13    10    1
    56     7     6    2
    57   171   173   ar
    58   171   170    1
    59    76    77    1
    60    11    12    2
    61    11    10    1
    62    16    17    2
    63   113   112    1
    64   112   109    1
    65     8     6   am
    66     6     5    1
    67    46    47    1
    68    46    45    1
    69    48    47    2
    70    10     9    1
    71    78    77    1
    72    78    79    2
    73   158   157    2
    74    18    17    1
    75   170   167    1
    76     5     2    1
    77    17    19    1
    78     9     3   am
    79   108   109    1
    80   108   106   am
    81    77    80    1
    82    45    36   am
    83   167   166    1
    84   167   168    1
    85   109   110    1
    86   160   159    1
    87   160   161    1
    88   105   106    1
    89   105   104    1
    90     3     4    2
    91     3     2    1
    92   169   168    2
    93   157   166   am
    94   157   156    1
    95    82    84   ar
    96    82    81   ar
    97   159   156    1
    98   106   107    2
    99    80    81    1
   100     2     1    1
   101    84    86   ar
   102   110   111    2
   103    81    83   ar
   104    36    37    2
   105    36    35    1
   106    60    58    1
   107    34    35    1
   108   156   155    1
   109   161   162    1
   110    56    57    2
   111    56    55    1
   112    58    55    1
   113    58    59    1
   114    61    59    1
   115    86    85   ar
   116   162   163    2
   117    35    38    1
   118    83    85   ar
   119    55    54    1
   120    38    39    1
   121   164   163    1
   122   163   165    1
   123    41    39   ar
   124    41    43   ar
   125    39    40   ar
   126    43    44   ar
   127    95    94    2
   128    40    42   ar
   129    94    93    1
   130    44    42   ar
   131   186   184   ar
   132   186   187   ar
   133   154   153    1
   134   184   182   ar
   135   152   153   ar
   136   152   150   ar
   137    92    93    1
   138    93    96    1
   139   153   151   ar
   140   187   185   ar
   141   124   123    1
   142   150   148   ar
   143   182   181    1
   144   182   183   ar
   145   181   178    1
   146   141   140   ar
   147   133   131   ar
   148   133   134   ar
   149   123   120    1
   150   131   130   ar
   151    96    97    1
   152   185   183   ar
   153   151   149   ar
   154   142   140   ar
   155   140   139    1
   156   134   132   ar
   157   148   149   ar
   158   148   147    1
   159   180   179    2
   160   178   179    1
   161   178   177    1
   162    97    99   ar
   163    97    98   ar
   164    99   101   ar
   165   130   132   ar
   166   130   129    1
   167   120   121    1
   168   120   119    1
   169   147   144    1
   170    98   100   ar
   171   122   121    2
   172   139   136    1
   173   101   102   ar
   174   129   126    1
   175   100   102   ar
   176   136   135    1
   177   136   137    1
   178   102   103    1
   179   135   127   am
   180   128   127    2
   181   144   145    1
   182   144   143    1
   183   127   126    1
   184   146   145    2
   185   138   137    2
   186   126   125    1
