@<TRIPOS>MOLECULE
tmp/2rd5D00.pdb
 131 125 0 0 0
SMALL
GASTEIGER

@<TRIPOS>ATOM
      1  N         54.2860   42.5370   40.2220 N.3    14  ILE14      -0.1245
      2  CA        55.0730   42.7990   41.4200 C.3    14  ILE14       0.1561
      3  C         56.5330   42.7350   40.9900 C.2    14  ILE14       0.2260
      4  O         57.0010   41.6780   40.5750 O.2    14  ILE14      -0.2867
      5  CB        54.8010   41.7510   42.5210 C.3    14  ILE14       0.0252
      6  CG1       53.3140   41.3470   42.5630 C.3    14  ILE14       0.0019
      7  CG2       55.3250   42.2310   43.8660 C.3    14  ILE14       0.0019
      8  CD1       52.3940   42.3190   43.2560 C.3    14  ILE14       0.0001
      9  N         54.8630   47.3850   48.3260 N.3    40  VAL40      -0.1231
     10  CA        54.5010   46.1150   48.9500 C.3    40  VAL40       0.1692
     11  C         55.7290   45.3750   49.4750 C.2    40  VAL40       0.2592
     12  O         56.8710   45.7460   49.1870 O.2    40  VAL40      -0.2718
     13  CB        53.7070   45.1770   47.9840 C.3    40  VAL40       0.0266
     14  CG1       52.3640   45.7940   47.5910 C.3    40  VAL40       0.0020
     15  CG2       54.5270   44.8290   46.7490 C.3    40  VAL40       0.0020
     16  N         55.4750   44.3270   50.2500 N.am   41  ARG41      -0.1966
     17  CA        56.5080   43.3850   50.6650 C.3    41  ARG41       0.1729
     18  C         56.1050   42.0080   50.1540 C.2    41  ARG41       0.2617
     19  O         54.9150   41.7030   50.0410 O.2    41  ARG41      -0.2715
     20  CB        56.6290   43.3450   52.1900 C.3    41  ARG41       0.0348
     21  CG        57.1740   44.6080   52.8540 C.3    41  ARG41       0.0492
     22  CD        56.8470   44.5880   54.3480 C.3    41  ARG41       0.2205
     23  NE        55.4840   45.0640   54.5990 N.pl3  41  ARG41      -0.0865
     24  CZ        54.6660   44.5860   55.5340 C.cat  41  ARG41       0.5346
     25  NH1       55.0480   43.5860   56.3260 N.pl3  41  ARG41       0.1354
     26  NH2       53.4520   45.1030   55.6640 N.pl3  41  ARG41       0.1354
     27  N         57.0880   41.1730   49.8460 N.am   42  GLY42      -0.1940
     28  CA        56.7900   39.8300   49.3890 C.3    42  GLY42       0.2014
     29  C         57.9370   38.8580   49.4980 C.2    42  GLY42       0.2639
     30  O         59.0760   39.2510   49.7690 O.2    42  GLY42      -0.2714
     31  N         57.6200   37.5790   49.3220 N.am   43  PHE43      -0.1959
     32  CA        58.6300   36.5740   49.0380 C.3    43  PHE43       0.1771
     33  C         58.1800   35.6240   47.9270 C.2    43  PHE43       0.2620
     34  O         57.0040   35.2540   47.8330 O.2    43  PHE43      -0.2715
     35  CB        59.1030   35.8260   50.3010 C.3    43  PHE43       0.0574
     36  CG        58.0190   35.0590   51.0330 C.ar   43  PHE43      -0.0200
     37  CD1       57.6530   33.7780   50.6290 C.ar   43  PHE43      -0.0042
     38  CD2       57.4030   35.6040   52.1590 C.ar   43  PHE43      -0.0042
     39  CE1       56.6650   33.0640   51.3130 C.ar   43  PHE43      -0.0003
     40  CE2       56.4160   34.9020   52.8490 C.ar   43  PHE43      -0.0003
     41  CZ        56.0460   33.6270   52.4250 C.ar   43  PHE43      -0.0000
     42  N         59.1270   35.2840   47.0590 N.am   44  GLY44      -0.1954
     43  CA        58.9510   34.2410   46.0620 C.3    44  GLY44       0.1869
     44  C         60.1160   33.2830   46.1880 C.2    44  GLY44       0.2309
     45  O         61.1450   33.4410   45.5220 O.2    44  GLY44      -0.2863
     46  N         61.5300   29.9620   45.5200 N.3    46  GLN46      -0.1245
     47  CA        61.6830   28.6930   44.8060 C.3    46  GLN46       0.1566
     48  C         62.7500   27.8520   45.4940 C.2    46  GLN46       0.2260
     49  O         63.6780   28.4000   46.0950 O.2    46  GLN46      -0.2867
     50  CB        62.0960   28.9290   43.3570 C.3    46  GLN46       0.0367
     51  CG        61.0900   29.7020   42.5290 C.3    46  GLN46       0.0905
     52  CD        61.0530   29.2290   41.0840 C.2    46  GLN46       0.2608
     53  OE1       60.7200   28.0750   40.8040 O.2    46  GLN46      -0.2717
     54  NE2       61.3890   30.1210   40.1610 N.am   46  GLN46      -0.0878
     55  N         66.6450   28.4410   46.5050 N.3    49  SER49      -0.1217
     56  CA        67.0450   29.7650   46.0080 C.3    49  SER49       0.1889
     57  C         67.1960   30.8460   47.0830 C.2    49  SER49       0.2288
     58  O         66.4180   30.9130   48.0380 O.2    49  SER49      -0.2866
     59  CB        66.0720   30.2520   44.9260 C.3    49  SER49       0.2089
     60  OG        64.8900   30.8030   45.4950 O.3    49  SER49      -0.2183
     61  N         67.6660   35.1020   47.4220 N.3    51  GLU51      -0.1245
     62  CA        67.4720   36.3790   46.7510 C.3    51  GLU51       0.1567
     63  C         68.3190   37.4700   47.4160 C.2    51  GLU51       0.2260
     64  O         68.4490   37.4980   48.6460 O.2    51  GLU51      -0.2867
     65  CB        65.9920   36.7570   46.8330 C.3    51  GLU51       0.0388
     66  CG        65.5960   38.0090   46.0750 C.3    51  GLU51       0.1160
     67  CD        64.1170   38.3360   46.2230 C.2    51  GLU51       0.3649
     68  OE1       63.3400   37.4480   46.6340 O.co2  51  GLU51      -0.2457
     69  OE2       63.7310   39.4850   45.9260 O.co2  51  GLU51      -0.2457
     70  N         59.0790   45.3560   47.4130 N.3    66  LYS66      -0.1245
     71  CA        58.7430   45.3040   45.9930 C.3    66  LYS66       0.1561
     72  C         57.7970   46.4520   45.6790 C.2    66  LYS66       0.2260
     73  O         57.3360   47.1400   46.5890 O.2    66  LYS66      -0.2867
     74  CB        58.0420   43.9800   45.6470 C.3    66  LYS66       0.0271
     75  CG        58.8070   42.7010   45.9980 C.3    66  LYS66       0.0035
     76  CD        59.8640   42.3600   44.9620 C.3    66  LYS66       0.0206
     77  CE        60.8580   41.3550   45.5320 C.3    66  LYS66       0.1093
     78  NZ        62.0500   41.1600   44.6600 N.3    66  LYS66      -0.1314
     79  N         68.2830   38.1460   37.4290 N.3    93  GLU93      -0.1231
     80  CA        68.5260   37.6390   38.7780 C.3    93  GLU93       0.1699
     81  C         67.2450   37.1520   39.4450 C.2    93  GLU93       0.2592
     82  O         66.1510   37.6420   39.1450 O.2    93  GLU93      -0.2718
     83  CB        69.1990   38.7060   39.6610 C.3    93  GLU93       0.0402
     84  CG        70.5790   39.1590   39.1860 C.3    93  GLU93       0.1161
     85  CD        71.5970   38.0290   39.1600 C.2    93  GLU93       0.3649
     86  OE1       71.8480   37.4190   40.2190 O.co2  93  GLU93      -0.2457
     87  OE2       72.1480   37.7520   38.0750 O.co2  93  GLU93      -0.2457
     88  N         67.4040   36.1800   40.3440 N.am   94  ILE94      -0.1966
     89  CA        66.3360   35.6860   41.2130 C.3    94  ILE94       0.1727
     90  C         65.6060   36.8570   41.8650 C.2    94  ILE94       0.2617
     91  O         66.2470   37.7660   42.4100 O.2    94  ILE94      -0.2715
     92  CB        66.9120   34.7430   42.3150 C.3    94  ILE94       0.0290
     93  CG1       67.4840   33.4560   41.6990 C.3    94  ILE94       0.0022
     94  CG2       65.8770   34.4260   43.3930 C.3    94  ILE94       0.0023
     95  CD1       66.4970   32.6470   40.8540 C.3    94  ILE94       0.0001
     96  N         64.2730   36.8470   41.7850 N.am   95  GLY95      -0.1940
     97  CA        63.4640   37.8900   42.4140 C.3    95  GLY95       0.2014
     98  C         63.0320   39.0080   41.4800 C.2    95  GLY95       0.2639
     99  O         62.6590   40.0890   41.9410 O.2    95  GLY95      -0.2714
    100  N         63.0670   38.7440   40.1740 N.am   96  ASP96      -0.1957
    101  CA        62.7020   39.7370   39.1590 C.3    96  ASP96       0.1840
    102  C         61.2140   40.0970   39.1400 C.2    96  ASP96       0.2623
    103  O         60.8460   41.1720   38.6690 O.2    96  ASP96      -0.2715
    104  CB        63.1410   39.2810   37.7600 C.3    96  ASP96       0.1450
    105  CG        64.5310   39.7830   37.3740 C.2    96  ASP96       0.3671
    106  OD1       65.0580   40.7140   38.0230 O.co2  96  ASP96      -0.2456
    107  OD2       65.0940   39.2440   36.3970 O.co2  96  ASP96      -0.2456
    108  N         60.3570   39.2050   39.6320 N.am   97  GLY97      -0.1940
    109  CA        58.9350   39.5160   39.6990 C.3    97  GLY97       0.2014
    110  C         57.9470   38.5130   39.1400 C.2    97  GLY97       0.2638
    111  O         58.2970   37.6150   38.3640 O.2    97  GLY97      -0.2714
    112  N         56.6980   38.6810   39.5590 N.am   98  LYS98      -0.1977
    113  CA        55.5790   37.9080   39.0610 C.3    98  LYS98       0.1596
    114  C         54.5270   38.8370   38.4850 C.2    98  LYS98       0.2287
    115  O         54.2560   39.9080   39.0400 O.2    98  LYS98      -0.2864
    116  CB        54.9410   37.1090   40.1950 C.3    98  LYS98       0.0298
    117  CG        55.5350   35.7450   40.4430 C.3    98  LYS98       0.0038
    118  CD        55.3430   34.7950   39.2790 C.3    98  LYS98       0.0206
    119  CE        55.3110   33.3580   39.7500 C.3    98  LYS98       0.1093
    120  NZ        55.9700   33.1010   41.0580 N.3    98  LYS98      -0.1314
    121  N         50.4300   38.9120   37.2570 N.3   100  PHE100     -0.1241
    122  CA        49.1210   38.2660   37.2500 C.3   100  PHE100      0.1605
    123  C         48.1820   39.0000   36.3040 C.2   100  PHE100      0.2264
    124  O         48.2750   40.2210   36.1470 O.2   100  PHE100     -0.2867
    125  CB        48.5160   38.2420   38.6550 C.3   100  PHE100      0.0534
    126  CG        49.4620   37.7660   39.7200 C.ar  100  PHE100     -0.0203
    127  CD1       50.0740   36.5140   39.6240 C.ar  100  PHE100     -0.0042
    128  CD2       49.7290   38.5600   40.8270 C.ar  100  PHE100     -0.0042
    129  CE1       50.9510   36.0760   40.6080 C.ar  100  PHE100     -0.0003
    130  CE2       50.6020   38.1270   41.8220 C.ar  100  PHE100     -0.0003
    131  CZ        51.2170   36.8830   41.7120 C.ar  100  PHE100     -0.0000
@<TRIPOS>BOND
     1   124   123    2
     2   123   122    1
     3   107   105   ar
     4   122   121    1
     5   122   125    1
     6   105   104    1
     7   105   106   ar
     8    79    80    1
     9   104   101    1
    10    87    85   ar
    11   111   110    2
    12   114   115    2
    13   114   113    1
    14   125   126    1
    15   103   102    2
    16    80    81    1
    17    80    83    1
    18   113   112    1
    19   113   116    1
    20   110   112   am
    21   110   109    1
    22   102   101    1
    23   102   108   am
    24    82    81    2
    25   101   100    1
    26    85    84    1
    27    85    86   ar
    28    84    83    1
    29   118   119    1
    30   118   117    1
    31    81    88   am
    32   127   126   ar
    33   127   129   ar
    34   108   109    1
    35   126   128   ar
    36   119   120    1
    37    54    52   am
    38   100    98   am
    39   116   117    1
    40     1     2    1
    41    88    89    1
    42     4     3    2
    43   129   131   ar
    44    53    52    2
    45   128   130   ar
    46    95    93    1
    47     3     2    1
    48    52    51    1
    49    89    90    1
    50    89    92    1
    51     2     5    1
    52    98    99    2
    53    98    97    1
    54    93    92    1
    55   131   130   ar
    56    96    90   am
    57    96    97    1
    58    90    91    2
    59    92    94    1
    60     5     6    1
    61     5     7    1
    62    51    50    1
    63     6     8    1
    64    50    47    1
    65    78    77    1
    66    47    48    1
    67    47    46    1
    68    59    60    1
    69    59    56    1
    70    76    77    1
    71    76    75    1
    72    48    49    2
    73    45    44    2
    74    74    71    1
    75    74    75    1
    76    72    71    1
    77    72    73    2
    78    69    67   ar
    79    71    70    1
    80    56    55    1
    81    56    57    1
    82    43    44    1
    83    43    42    1
    84    66    67    1
    85    66    65    1
    86    67    68   ar
    87    15    13    1
    88    62    65    1
    89    62    63    1
    90    62    61    1
    91    42    33   am
    92    57    58    2
    93    63    64    2
    94    14    13    1
    95    34    33    2
    96    33    32    1
    97    13    10    1
    98     9    10    1
    99    10    11    1
   100    32    31    1
   101    32    35    1
   102    12    11    2
   103    31    29   am
   104    28    29    1
   105    28    27    1
   106    11    16   am
   107    29    30    2
   108    27    18   am
   109    19    18    2
   110    18    17    1
   111    16    17    1
   112    35    36    1
   113    37    36   ar
   114    37    39   ar
   115    17    20    1
   116    36    38   ar
   117    39    41   ar
   118    38    40   ar
   119    20    21    1
   120    41    40   ar
   121    21    22    1
   122    22    23    1
   123    23    24    2
   124    24    26    1
   125    24    25    1
