@<TRIPOS>MOLECULE
tmp/2rd5B00.pdb
 128 122 0 0 0
SMALL
GASTEIGER

@<TRIPOS>ATOM
      1  N         94.0420   74.2560   48.1220 N.3    15  PHE15      -0.1241
      2  CA        93.3660   75.5480   48.1110 C.3    15  PHE15       0.1605
      3  C         91.8870   75.4100   48.4770 C.2    15  PHE15       0.2264
      4  O         91.3330   76.2580   49.1780 O.2    15  PHE15      -0.2867
      5  CB        93.5480   76.2300   46.7510 C.3    15  PHE15       0.0534
      6  CG        94.9920   76.5230   46.4060 C.ar   15  PHE15      -0.0203
      7  CD1       95.6170   77.6780   46.8780 C.ar   15  PHE15      -0.0042
      8  CD2       95.7280   75.6410   45.6180 C.ar   15  PHE15      -0.0042
      9  CE1       96.9550   77.9550   46.5650 C.ar   15  PHE15      -0.0003
     10  CE2       97.0680   75.9050   45.3010 C.ar   15  PHE15      -0.0003
     11  CZ        97.6810   77.0670   45.7750 C.ar   15  PHE15      -0.0000
     12  N         91.6730   74.6110   52.4000 N.3    18  LYS18      -0.1231
     13  CA        92.2250   75.6490   53.2810 C.3    18  LYS18       0.1693
     14  C         91.1720   76.4790   54.0240 C.2    18  LYS18       0.2592
     15  O         91.3570   76.7980   55.2010 O.2    18  LYS18      -0.2718
     16  CB        93.1800   76.5680   52.5140 C.3    18  LYS18       0.0285
     17  CG        94.1570   77.3200   53.4030 C.3    18  LYS18       0.0035
     18  CD        94.9640   78.3290   52.6040 C.3    18  LYS18       0.0206
     19  CE        95.9500   79.0680   53.4960 C.3    18  LYS18       0.1093
     20  NZ        96.5080   80.2720   52.8190 N.3    18  LYS18      -0.1314
     21  N         90.0840   76.8340   53.3440 N.am   19  PHE19      -0.1976
     22  CA        89.0100   77.5990   53.9790 C.3    19  PHE19       0.1639
     23  C         87.6790   76.8390   54.0110 C.2    19  PHE19       0.2290
     24  O         86.6160   77.4410   54.1400 O.2    19  PHE19      -0.2864
     25  CB        88.8410   78.9870   53.3280 C.3    19  PHE19       0.0560
     26  CG        90.1070   79.8110   53.2960 C.ar   19  PHE19      -0.0200
     27  CD1       90.6780   80.2900   54.4790 C.ar   19  PHE19      -0.0042
     28  CD2       90.7240   80.1140   52.0790 C.ar   19  PHE19      -0.0042
     29  CE1       91.8530   81.0490   54.4540 C.ar   19  PHE19      -0.0003
     30  CE2       91.8980   80.8730   52.0390 C.ar   19  PHE19      -0.0003
     31  CZ        92.4630   81.3430   53.2300 C.ar   19  PHE19      -0.0000
     32  N         86.3680   86.0820   55.8920 N.3   196  LYS196     -0.1245
     33  CA        86.7360   87.0530   54.8680 C.3   196  LYS196      0.1561
     34  C         85.5820   87.9410   54.4320 C.2   196  LYS196      0.2260
     35  O         84.4170   87.5280   54.4280 O.2   196  LYS196     -0.2867
     36  CB        87.3070   86.3470   53.6320 C.3   196  LYS196      0.0271
     37  CG        88.6050   85.6050   53.8760 C.3   196  LYS196      0.0035
     38  CD        89.2370   85.1200   52.5880 C.3   196  LYS196      0.0206
     39  CE        90.4120   84.1930   52.8840 C.3   196  LYS196      0.1093
     40  NZ        91.5330   84.8670   53.6130 N.3   196  LYS196     -0.1314
     41  N         98.9510   96.0470   46.3610 N.3   218  LYS218     -0.1231
     42  CA        98.6420   94.6230   46.5030 C.3   218  LYS218      0.1693
     43  C         98.2420   94.2300   47.9260 C.2   218  LYS218      0.2591
     44  O         97.3430   93.4130   48.1080 O.2   218  LYS218     -0.2718
     45  CB        99.7790   93.7520   45.9530 C.3   218  LYS218      0.0285
     46  CG        99.7670   93.6650   44.4210 C.3   218  LYS218      0.0035
     47  CD       101.0480   93.0660   43.8480 C.3   218  LYS218      0.0206
     48  CE       101.0120   93.0710   42.3150 C.3   218  LYS218      0.1093
     49  NZ       102.3510   92.8250   41.7020 N.3   218  LYS218     -0.1314
     50  N         98.8970   94.8160   48.9260 N.am  219  GLU219     -0.1979
     51  CA        98.4360   94.7070   50.3150 C.3   219  GLU219      0.1602
     52  C         98.8120   95.8950   51.1910 C.2   219  GLU219      0.2287
     53  O         99.7890   96.5860   50.9350 O.2   219  GLU219     -0.2864
     54  CB        98.8370   93.3720   50.9740 C.3   219  GLU219      0.0415
     55  CG       100.2690   92.9170   50.7590 C.3   219  GLU219      0.1163
     56  CD       100.5550   91.5670   51.4130 C.2   219  GLU219      0.3649
     57  OE1       99.5940   90.8210   51.7160 O.co2 219  GLU219     -0.2457
     58  OE2      101.7470   91.2540   51.6220 O.co2 219  GLU219     -0.2457
     59  N         90.4250   88.8280   57.1120 N.3   255  THR255     -0.1218
     60  CA        90.9540   89.5850   55.9690 C.3   255  THR255      0.1862
     61  C         89.8290   90.2480   55.1760 C.2   255  THR255      0.2287
     62  O         88.7030   89.7560   55.1560 O.2   255  THR255     -0.2866
     63  CB        91.8110   88.7190   54.9910 C.3   255  THR255      0.1770
     64  OG1       90.9690   87.8100   54.2700 O.3   255  THR255     -0.2211
     65  CG2       92.9180   87.9380   55.7260 C.3   255  THR255      0.0375
     66  N         91.3090   85.3450   43.8480 N.3   270  GLU270     -0.1231
     67  CA        91.5610   85.9470   45.1500 C.3   270  GLU270      0.1699
     68  C         91.6670   84.9040   46.2690 C.2   270  GLU270      0.2592
     69  O         92.5950   84.9460   47.0690 O.2   270  GLU270     -0.2718
     70  CB        90.4900   86.9980   45.4760 C.3   270  GLU270      0.0402
     71  CG        90.5900   87.6250   46.8770 C.3   270  GLU270      0.1161
     72  CD        91.8780   88.4150   47.1170 C.2   270  GLU270      0.3649
     73  OE1       92.5060   88.8880   46.1440 O.co2 270  GLU270     -0.2457
     74  OE2       92.2600   88.5710   48.2940 O.co2 270  GLU270     -0.2457
     75  N         90.7220   83.9710   46.3070 N.am  271  ILE271     -0.1980
     76  CA        90.6850   82.9370   47.3370 C.3   271  ILE271      0.1595
     77  C         91.6270   81.7630   47.0370 C.2   271  ILE271      0.2287
     78  O         92.3290   81.2790   47.9300 O.2   271  ILE271     -0.2864
     79  CB        89.2440   82.4130   47.5510 C.3   271  ILE271      0.0276
     80  CG1       88.3390   83.5570   48.0110 C.3   271  ILE271      0.0022
     81  CG2       89.2220   81.2880   48.5770 C.3   271  ILE271      0.0022
     82  CD1       86.8720   83.2640   47.9200 C.3   271  ILE271      0.0001
     83  N         94.4630   81.2170   45.3900 N.3   273  SER273     -0.1202
     84  CA        95.8660   81.4440   45.0100 C.3   273  SER273      0.2020
     85  C         96.5740   82.3920   45.9810 C.2   273  SER273      0.2619
     86  O         95.9270   83.2070   46.6370 O.2   273  SER273     -0.2717
     87  CB        95.9830   81.9660   43.5690 C.3   273  SER273      0.2103
     88  OG        95.9030   83.3770   43.5070 O.3   273  SER273     -0.2182
     89  N         97.9010   82.2830   46.0530 N.am  274  ASP274     -0.1959
     90  CA        98.7150   83.0640   46.9930 C.3   274  ASP274      0.1840
     91  C         98.8290   84.5440   46.6210 C.2   274  ASP274      0.2622
     92  O         98.9550   85.3960   47.5010 O.2   274  ASP274     -0.2715
     93  CB       100.1160   82.4490   47.1400 C.3   274  ASP274      0.1450
     94  CG       100.0910   81.0430   47.7540 C.2   274  ASP274      0.3671
     95  OD1       99.2070   80.7460   48.5910 O.co2 274  ASP274     -0.2456
     96  OD2      100.9710   80.2300   47.4000 O.co2 274  ASP274     -0.2456
     97  N         98.7910   84.8400   45.3230 N.am  275  GLU275     -0.1963
     98  CA        98.8640   86.2170   44.8200 C.3   275  GLU275      0.1733
     99  C         97.5990   87.0340   45.1020 C.2   275  GLU275      0.2616
    100  O         97.6780   88.2230   45.4290 O.2   275  GLU275     -0.2715
    101  CB        99.1350   86.2180   43.3110 C.3   275  GLU275      0.0429
    102  CG       100.6070   86.3040   42.9260 C.3   275  GLU275      0.1163
    103  CD       101.1560   87.7300   42.9710 C.2   275  GLU275      0.3649
    104  OE1      100.6140   88.6090   42.2570 O.co2 275  GLU275     -0.2457
    105  OE2      102.1400   87.9650   43.7130 O.co2 275  GLU275     -0.2457
    106  N         96.4390   86.3960   44.9630 N.am  276  GLY276     -0.1955
    107  CA        95.1640   87.1010   45.0280 C.3   276  GLY276      0.1869
    108  C         94.9010   87.8820   43.7540 C.2   276  GLY276      0.2309
    109  O         95.6380   87.7510   42.7740 O.2   276  GLY276     -0.2863
    110  N         93.8650   91.5630   43.6630 N.3   278  GLY278     -0.1210
    111  CA        93.6020   92.9550   44.0060 C.3   278  GLY278      0.1956
    112  C         94.2730   93.3620   45.2990 C.2   278  GLY278      0.2613
    113  O         95.4090   92.9660   45.5690 O.2   278  GLY278     -0.2717
    114  N         93.5600   94.1490   46.1010 N.am  279  THR279     -0.1938
    115  CA        94.0840   94.6440   47.3660 C.3   279  THR279      0.2028
    116  C         93.5490   93.8230   48.5320 C.2   279  THR279      0.2642
    117  O         92.3350   93.6720   48.6750 O.2   279  THR279     -0.2714
    118  CB        93.7010   96.1250   47.5890 C.3   279  THR279      0.1808
    119  OG1       94.1090   96.9060   46.4570 O.3   279  THR279     -0.2208
    120  CG2       94.3500   96.6720   48.8620 C.3   279  THR279      0.0379
    121  N         94.4570   93.2980   49.3560 N.am  280  MET280     -0.1976
    122  CA        94.0830   92.7380   50.6530 C.3   280  MET280      0.1605
    123  C         94.4450   93.6960   51.7870 C.2   280  MET280      0.2287
    124  O         95.5880   94.1400   51.8980 O.2   280  MET280     -0.2864
    125  CB        94.7270   91.3650   50.8910 C.3   280  MET280      0.0413
    126  CG        94.4610   90.8000   52.2930 C.3   280  MET280      0.0598
    127  SD        95.0420   89.1120   52.5450 S.3   280  MET280     -0.1393
    128  CE        93.6880   88.1910   51.8200 C.3   280  MET280      0.0692
@<TRIPOS>BOND
     1    49    48    1
     2   104   103   ar
     3    48    47    1
     4   109   108    2
     5   102   103    1
     6   102   101    1
     7   103   105   ar
     8   101    98    1
     9    88    87    1
    10    87    84    1
    11   110   111    1
    12   108   107    1
    13    47    46    1
    14    66    67    1
    15   111   112    1
    16    46    45    1
    17    98    99    1
    18    98    97    1
    19   106   107    1
    20   106    99   am
    21    84    83    1
    22    84    85    1
    23    99   100    2
    24    67    70    1
    25    67    68    1
    26   112   113    2
    27   112   114   am
    28    10     8   ar
    29    10    11   ar
    30    97    91   am
    31    70    71    1
    32     8     6   ar
    33    11     9   ar
    34    45    42    1
    35    85    89   am
    36    85    86    2
    37    89    90    1
    38   114   115    1
    39    73    72   ar
    40    68    75   am
    41    68    69    2
    42    75    76    1
    43    41    42    1
    44     6     5    1
    45     6     7   ar
    46   119   118    1
    47    42    43    1
    48     9     7   ar
    49    91    90    1
    50    91    92    2
    51     5     2    1
    52    71    72    1
    53    90    93    1
    54    77    76    1
    55    77    78    2
    56    72    74   ar
    57    93    94    1
    58    76    79    1
    59   115   118    1
    60   115   116    1
    61    96    94   ar
    62    79    80    1
    63    79    81    1
    64   118   120    1
    65    94    95   ar
    66    82    80    1
    67    43    44    2
    68    43    50   am
    69     2     1    1
    70     2     3    1
    71     3     4    2
    72   116   117    2
    73   116   121   am
    74    50    51    1
    75   121   122    1
    76    51    54    1
    77    51    52    1
    78   122   125    1
    79   122   123    1
    80    55    54    1
    81    55    56    1
    82   125   126    1
    83    53    52    2
    84    56    58   ar
    85    56    57   ar
    86   123   124    2
    87   128   127    1
    88    30    28   ar
    89    30    31   ar
    90    28    26   ar
    91   126   127    1
    92    12    13    1
    93    16    13    1
    94    16    17    1
    95    38    39    1
    96    38    37    1
    97    18    17    1
    98    18    19    1
    99    20    19    1
   100    39    40    1
   101    31    29   ar
   102    13    14    1
   103    26    25    1
   104    26    27   ar
   105    25    22    1
   106    21    22    1
   107    21    14   am
   108    36    37    1
   109    36    33    1
   110    22    23    1
   111    23    24    2
   112    14    15    2
   113    64    63    1
   114    35    34    2
   115    34    33    1
   116    29    27   ar
   117    33    32    1
   118    63    65    1
   119    63    60    1
   120    62    61    2
   121    61    60    1
   122    60    59    1
