@<TRIPOS>MOLECULE
tmp/2rd5B01.pdb
 150 140 0 0 0
SMALL
GASTEIGER

@<TRIPOS>ATOM
      1  N         80.6860   90.8100   48.4610 N.3    27  LYS27      -0.1245
      2  CA        79.9030   91.9470   48.0040 C.3    27  LYS27       0.1561
      3  C         80.1170   92.1860   46.5120 C.2    27  LYS27       0.2260
      4  O         81.2420   92.4530   46.0600 O.2    27  LYS27      -0.2867
      5  CB        80.1980   93.2010   48.8190 C.3    27  LYS27       0.0271
      6  CG        79.2170   94.3580   48.5670 C.3    27  LYS27       0.0035
      7  CD        79.8110   95.3940   47.6440 C.3    27  LYS27       0.0206
      8  CE        78.7740   96.4110   47.1790 C.3    27  LYS27       0.1093
      9  NZ        79.4400   97.6410   46.6380 N.3    27  LYS27      -0.1314
     10  N         79.5180   94.5140   43.6480 N.3    29  GLY29      -0.1210
     11  CA        79.2340   95.9300   43.4260 C.3    29  GLY29       0.1956
     12  C         78.4690   96.2080   42.1530 C.2    29  GLY29       0.2612
     13  O         78.6560   95.5170   41.1420 O.2    29  GLY29      -0.2717
     14  N         77.6060   97.2260   42.2080 N.am   30  GLY30      -0.1942
     15  CA        76.8240   97.6650   41.0530 C.3    30  GLY30       0.2014
     16  C         77.6980   97.9950   39.8560 C.2    30  GLY30       0.2638
     17  O         77.3680   97.6450   38.7160 O.2    30  GLY30      -0.2714
     18  N         78.8300   98.6470   40.1180 N.am   31  ALA31      -0.1977
     19  CA        79.7450   99.0790   39.0600 C.3    31  ALA31       0.1597
     20  C         80.3640   97.9120   38.2870 C.2    31  ALA31       0.2287
     21  O         80.8060   98.0840   37.1490 O.2    31  ALA31      -0.2864
     22  CB        80.8320   99.9670   39.6400 C.3    31  ALA31       0.0319
     23  N         74.2050  100.8650   42.1460 N.3    63  GLY63      -0.1210
     24  CA        74.2800  102.2990   41.8380 C.3    63  GLY63       0.1940
     25  C         73.9310  102.6730   40.4080 C.2    63  GLY63       0.2453
     26  O         73.1000  103.5620   40.1850 O.2    63  GLY63      -0.2732
     27  N         74.5680  102.0160   39.4200 N.am   64  PRO64      -0.2728
     28  CA        74.2820  102.3900   38.0260 C.3    64  PRO64       0.1401
     29  C         72.8630  102.0150   37.5580 C.2    64  PRO64       0.2269
     30  O         72.2740  102.7350   36.7370 O.2    64  PRO64      -0.2865
     31  CB        75.3640  101.6470   37.2230 C.3    64  PRO64       0.0296
     32  CG        76.3940  101.2010   38.2670 C.3    64  PRO64       0.0237
     33  CD        75.5880  100.9560   39.5000 C.3    64  PRO64       0.0939
     34  N         80.7770  109.1850   48.1870 N.3    82  GLY82      -0.1225
     35  CA        80.2960  107.8570   47.8120 C.3    82  GLY82       0.1811
     36  C         78.9290  107.4640   48.3450 C.2    82  GLY82       0.2280
     37  O         78.5370  106.3030   48.2340 O.2    82  GLY82      -0.2866
     38  N         74.3940  102.2420   52.1360 N.3   180  ASN180     -0.1240
     39  CA        75.4250  101.8510   51.1650 C.3   180  ASN180      0.1653
     40  C         75.7530  100.3530   51.2610 C.2   180  ASN180      0.2266
     41  O         75.8810   99.7940   52.3640 O.2   180  ASN180     -0.2867
     42  CB        76.6910  102.6790   51.3540 C.3   180  ASN180      0.1155
     43  CG        77.6760  102.5070   50.2110 C.2   180  ASN180      0.2627
     44  OD1       78.5040  101.5960   50.2210 O.2   180  ASN180     -0.2716
     45  ND2       77.5870  103.3850   49.2150 N.am  180  ASN180     -0.0877
     46  N         78.3540   98.5290   50.6140 N.3   182  ASP182     -0.1239
     47  CA        79.6220   98.2360   51.3120 C.3   182  ASP182      0.1674
     48  C         79.4230   98.1810   52.8330 C.2   182  ASP182      0.2266
     49  O         79.8690   97.2370   53.4880 O.2   182  ASP182     -0.2867
     50  CB        80.7110   99.2700   50.9750 C.3   182  ASP182      0.1410
     51  CG        81.0020   99.3810   49.4770 C.2   182  ASP182      0.3668
     52  OD1       80.7340   98.4350   48.7140 O.co2 182  ASP182     -0.2456
     53  OD2       81.5110  100.4360   49.0520 O.co2 182  ASP182     -0.2456
     54  N         84.4070   95.1860   42.5730 N.3   201  THR201     -0.1203
     55  CA        84.1390   96.5390   42.0810 C.3   201  THR201      0.1994
     56  C         84.6100   96.6960   40.6120 C.2   201  THR201      0.2618
     57  O         84.7770   95.6930   39.9070 O.2   201  THR201     -0.2717
     58  CB        84.7430   97.5910   43.0580 C.3   201  THR201      0.1784
     59  OG1       84.3990   98.9170   42.6340 O.3   201  THR201     -0.2211
     60  CG2       86.2660   97.4410   43.1730 C.3   201  THR201      0.0376
     61  N         84.8150   97.9270   40.1430 N.am  202  ASP202     -0.1959
     62  CA        85.1460   98.1550   38.7260 C.3   202  ASP202      0.1840
     63  C         86.5760   98.6600   38.4910 C.2   202  ASP202      0.2621
     64  O         86.8730   99.2700   37.4590 O.2   202  ASP202     -0.2715
     65  CB        84.1110   99.0780   38.0610 C.3   202  ASP202      0.1450
     66  CG        84.1190  100.4930   38.6320 C.2   202  ASP202      0.3671
     67  OD1       84.8510  100.7490   39.6160 O.co2 202  ASP202     -0.2456
     68  OD2       83.3860  101.3560   38.0900 O.co2 202  ASP202     -0.2456
     69  N         87.4470   98.4130   39.4650 N.am  203  VAL203     -0.1977
     70  CA        88.8630   98.7590   39.3780 C.3   203  VAL203      0.1596
     71  C         89.6900   97.5970   39.9310 C.2   203  VAL203      0.2287
     72  O         89.1510   96.7160   40.6110 O.2   203  VAL203     -0.2864
     73  CB        89.1930  100.0580   40.1550 C.3   203  VAL203      0.0276
     74  CG1       88.6830  101.2910   39.4080 C.3   203  VAL203      0.0022
     75  CG2       88.6370  100.0090   41.5770 C.3   203  VAL203      0.0022
     76  N         91.7160   97.3420   42.2930 N.3   205  GLY205     -0.1210
     77  CA        91.7480   97.3200   43.7510 C.3   205  GLY205      0.1956
     78  C         91.8970   98.7560   44.2110 C.2   205  GLY205      0.2612
     79  O         91.4580   99.6770   43.5180 O.2   205  GLY205     -0.2717
     80  N         92.5100   98.9590   45.3730 N.am  206  ILE206     -0.1965
     81  CA        92.8330  100.3100   45.8040 C.3   206  ILE206      0.1727
     82  C         94.0430  100.7690   45.0040 C.2   206  ILE206      0.2616
     83  O         95.0910  100.1160   45.0230 O.2   206  ILE206     -0.2715
     84  CB        93.1460  100.4100   47.3090 C.3   206  ILE206      0.0290
     85  CG1       91.9490   99.9620   48.1490 C.3   206  ILE206      0.0022
     86  CG2       93.5320  101.8470   47.6700 C.3   206  ILE206      0.0023
     87  CD1       92.2830   99.7490   49.6280 C.3   206  ILE206      0.0001
     88  N         93.8810  101.8800   44.2920 N.am  207  LEU207     -0.1977
     89  CA        94.9730  102.4730   43.5230 C.3   207  LEU207      0.1596
     90  C         95.6200  103.6140   44.2990 C.2   207  LEU207      0.2287
     91  O         94.9230  104.4380   44.8970 O.2   207  LEU207     -0.2864
     92  CB        94.4660  102.9900   42.1710 C.3   207  LEU207      0.0297
     93  CG        93.7270  102.0470   41.2120 C.3   207  LEU207      0.0022
     94  CD1       93.2220  102.8240   40.0000 C.3   207  LEU207      0.0001
     95  CD2       94.6060  100.8700   40.7730 C.3   207  LEU207      0.0001
     96  N         94.2680  107.4050   41.4570 N.3   210  LYS210     -0.1245
     97  CA        92.9880  107.1450   40.7500 C.3   210  LYS210      0.1561
     98  C         93.1350  107.0240   39.2300 C.2   210  LYS210      0.2260
     99  O         92.4970  106.1770   38.6010 O.2   210  LYS210     -0.2867
    100  CB        91.9670  108.2550   41.0250 C.3   210  LYS210      0.0271
    101  CG        91.5250  108.4210   42.4670 C.3   210  LYS210      0.0035
    102  CD        90.1720  109.1340   42.5400 C.3   210  LYS210      0.0206
    103  CE        90.2340  110.5810   42.0660 C.3   210  LYS210      0.1093
    104  NZ        90.7500  111.4780   43.1260 N.3   210  LYS210     -0.1314
    105  N         93.6840  110.2970   48.7300 N.3   233  LYS233     -0.1231
    106  CA        93.9840  109.3160   47.6790 C.3   233  LYS233      0.1693
    107  C         92.7720  108.4210   47.4120 C.2   233  LYS233      0.2592
    108  O         92.5590  107.9450   46.2920 O.2   233  LYS233     -0.2718
    109  CB        95.1680  108.4420   48.1030 C.3   233  LYS233      0.0285
    110  CG        96.4340  109.1960   48.5190 C.3   233  LYS233      0.0035
    111  CD        97.5870  108.9200   47.5670 C.3   233  LYS233      0.0206
    112  CE        98.9050  109.4760   48.0990 C.3   233  LYS233      0.1093
    113  NZ        99.0880  110.9190   47.7570 N.3   233  LYS233     -0.1314
    114  N         91.9910  108.1960   48.4640 N.am  234  VAL234     -0.1966
    115  CA        90.7510  107.4540   48.3800 C.3   234  VAL234      0.1727
    116  C         89.6080  108.4660   48.3720 C.2   234  VAL234      0.2616
    117  O         89.4980  109.3000   49.2770 O.2   234  VAL234     -0.2715
    118  CB        90.6270  106.4380   49.5500 C.3   234  VAL234      0.0290
    119  CG1       89.2080  105.9440   49.7050 C.3   234  VAL234      0.0023
    120  CG2       91.5610  105.2580   49.3230 C.3   234  VAL234      0.0023
    121  N         88.7810  108.4000   47.3300 N.am  235  ALA235     -0.1963
    122  CA        87.6750  109.3420   47.1340 C.3   235  ALA235      0.1728
    123  C         86.4220  108.6330   46.6120 C.2   235  ALA235      0.2617
    124  O         86.4510  107.4320   46.3200 O.2   235  ALA235     -0.2715
    125  CB        88.0910  110.4620   46.1890 C.3   235  ALA235      0.0334
    126  N         85.3230  109.3770   46.5080 N.am  236  GLY236     -0.1940
    127  CA        84.0690  108.8410   45.9670 C.3   236  GLY236      0.2014
    128  C         83.6540  107.5420   46.6350 C.2   236  GLY236      0.2639
    129  O         83.7890  107.3940   47.8560 O.2   236  GLY236     -0.2714
    130  N         83.1690  106.5980   45.8310 N.am  237  GLY237     -0.1939
    131  CA        82.6590  105.3190   46.3330 C.3   237  GLY237      0.2014
    132  C         83.6810  104.4210   47.0040 C.2   237  GLY237      0.2638
    133  O         83.3090  103.4630   47.6810 O.2   237  GLY237     -0.2714
    134  N         84.9680  104.7320   46.8260 N.am  238  MET238     -0.1976
    135  CA        86.0500  103.9720   47.4510 C.3   238  MET238      0.1605
    136  C         86.1920  104.2800   48.9520 C.2   238  MET238      0.2287
    137  O         86.7900  103.4920   49.6950 O.2   238  MET238     -0.2864
    138  CB        87.3750  104.1870   46.6980 C.3   238  MET238      0.0413
    139  CG        88.5450  103.2730   47.1240 C.3   238  MET238      0.0598
    140  SD        88.2000  101.4960   47.0350 S.3   238  MET238     -0.1393
    141  CE        88.0010  101.2140   45.2760 C.3   238  MET238      0.0692
    142  N         83.7110  101.8640   50.7370 N.3   241  LYS241     -0.1245
    143  CA        84.3810  100.5930   50.4630 C.3   241  LYS241      0.1561
    144  C         85.5430  100.3360   51.4420 C.2   241  LYS241      0.2260
    145  O         85.6030   99.2860   52.0870 O.2   241  LYS241     -0.2867
    146  CB        84.8740  100.5530   49.0120 C.3   241  LYS241      0.0271
    147  CG        84.8430   99.1660   48.3980 C.3   241  LYS241      0.0035
    148  CD        84.9520   99.1860   46.8700 C.3   241  LYS241      0.0206
    149  CE        83.7650   99.8740   46.1900 C.3   241  LYS241      0.1093
    150  NZ        82.4590   99.1980   46.4010 N.3   241  LYS241     -0.1314
@<TRIPOS>BOND
     1    30    29    2
     2    21    20    2
     3    31    28    1
     4    31    32    1
     5    64    63    2
     6    29    28    1
     7    28    27    1
     8    65    66    1
     9    65    62    1
    10    68    66   ar
    11    32    33    1
    12    20    19    1
    13    63    62    1
    14    63    69   am
    15    99    98    2
    16    66    67   ar
    17    17    16    2
    18    62    61    1
    19    19    22    1
    20    19    18    1
    21    98    97    1
    22    70    69    1
    23    70    71    1
    24    70    73    1
    25    74    73    1
    26    27    33    1
    27    27    25   am
    28    16    18   am
    29    16    15    1
    30    57    56    2
    31    71    72    2
    32    94    93    1
    33    61    56   am
    34    73    75    1
    35    26    25    2
    36    25    24    1
    37    56    55    1
    38    97   100    1
    39    97    96    1
    40    95    93    1
    41   100   101    1
    42    15    14    1
    43    13    12    2
    44    93    92    1
    45    24    23    1
    46   103   102    1
    47   103   104    1
    48    55    54    1
    49    55    58    1
    50    12    14   am
    51    12    11    1
    52    92    89    1
    53    76    77    1
    54   101   102    1
    55    59    58    1
    56    58    60    1
    57    11    10    1
    58    79    78    2
    59    89    88    1
    60    89    90    1
    61    77    78    1
    62    78    80   am
    63    88    82   am
    64    90    91    2
    65    82    83    2
    66    82    81    1
    67   141   140    1
    68    80    81    1
    69    81    84    1
    70   130   131    1
    71   130   128   am
    72   127   126    1
    73   127   128    1
    74     4     3    2
    75   125   122    1
    76   149   150    1
    77   149   148    1
    78   108   107    2
    79   124   123    2
    80   131   132    1
    81   126   123   am
    82     3     2    1
    83   123   122    1
    84   128   129    2
    85     9     8    1
    86   138   139    1
    87   138   135    1
    88   134   132   am
    89   134   135    1
    90   148   147    1
    91   132   133    2
    92   140   139    1
    93   122   121    1
    94     8     7    1
    95    84    86    1
    96    84    85    1
    97   121   116   am
    98   107   106    1
    99   107   114   am
   100   135   136    1
   101   111   112    1
   102   111   110    1
   103     7     6    1
   104   106   109    1
   105   106   105    1
   106   113   112    1
   107    35    34    1
   108    35    36    1
   109     2     1    1
   110     2     5    1
   111   109   110    1
   112    85    87    1
   113    37    36    2
   114   116   115    1
   115   116   117    2
   116   115   114    1
   117   115   118    1
   118   147   146    1
   119     6     5    1
   120    52    51   ar
   121   136   137    2
   122   146   143    1
   123    53    51   ar
   124    45    43   am
   125   120   118    1
   126    51    50    1
   127   118   119    1
   128    43    44    2
   129    43    42    1
   130   143   142    1
   131   143   144    1
   132    46    47    1
   133    50    47    1
   134    39    40    1
   135    39    42    1
   136    39    38    1
   137    40    41    2
   138    47    48    1
   139   144   145    2
   140    48    49    2
