@<TRIPOS>MOLECULE
tmp/2rd5B02.pdb
 132 122 0 0 0
SMALL
GASTEIGER

@<TRIPOS>ATOM
      1  N         80.6860   90.8100   48.4610 N.3    27  LYS27      -0.1245
      2  CA        79.9030   91.9470   48.0040 C.3    27  LYS27       0.1561
      3  C         80.1170   92.1860   46.5120 C.2    27  LYS27       0.2260
      4  O         81.2420   92.4530   46.0600 O.2    27  LYS27      -0.2867
      5  CB        80.1980   93.2010   48.8190 C.3    27  LYS27       0.0271
      6  CG        79.2170   94.3580   48.5670 C.3    27  LYS27       0.0035
      7  CD        79.8110   95.3940   47.6440 C.3    27  LYS27       0.0206
      8  CE        78.7740   96.4110   47.1790 C.3    27  LYS27       0.1093
      9  NZ        79.4400   97.6410   46.6380 N.3    27  LYS27      -0.1314
     10  N         77.6060   97.2260   42.2080 N.3    30  GLY30      -0.1225
     11  CA        76.8240   97.6650   41.0530 C.3    30  GLY30       0.1811
     12  C         77.6980   97.9950   39.8560 C.2    30  GLY30       0.2280
     13  O         77.3680   97.6450   38.7160 O.2    30  GLY30      -0.2866
     14  N         75.2310   95.6100   45.4090 N.3    61  GLY61      -0.1210
     15  CA        74.7970   97.0000   45.2610 C.3    61  GLY61       0.1956
     16  C         73.9530   97.1850   44.0080 C.2    61  GLY61       0.2612
     17  O         73.2530   96.2680   43.5790 O.2    61  GLY61      -0.2717
     18  N         74.0180   98.3710   43.4110 N.am   62  GLY62      -0.1942
     19  CA        73.2740   98.6350   42.1810 C.3    62  GLY62       0.2014
     20  C         73.1710  100.0970   41.8060 C.2    62  GLY62       0.2639
     21  O         72.1810  100.5170   41.2020 O.2    62  GLY62      -0.2714
     22  N         74.2050  100.8650   42.1460 N.am   63  GLY63      -0.1954
     23  CA        74.2800  102.2990   41.8380 C.3    63  GLY63       0.1869
     24  C         73.9310  102.6730   40.4080 C.2    63  GLY63       0.2309
     25  O         73.1000  103.5620   40.1850 O.2    63  GLY63      -0.2863
     26  N         70.1480  102.0080   39.5300 N.3    66  ILE66      -0.1245
     27  CA        69.3800  103.1180   40.1010 C.3    66  ILE66       0.1561
     28  C         69.5070  104.3730   39.2290 C.2    66  ILE66       0.2260
     29  O         68.4920  104.9440   38.7940 O.2    66  ILE66      -0.2867
     30  CB        69.8320  103.4370   41.5550 C.3    66  ILE66       0.0252
     31  CG1       69.5450  102.2480   42.4790 C.3    66  ILE66       0.0019
     32  CG2       69.1420  104.6950   42.0730 C.3    66  ILE66       0.0019
     33  CD1       70.3990  102.2140   43.7470 C.3    66  ILE66       0.0001
     34  N         75.7640  112.5830   44.6980 N.3    79  PHE79      -0.1241
     35  CA        76.5630  111.7840   45.6280 C.3    79  PHE79       0.1605
     36  C         77.5790  112.6490   46.3800 C.2    79  PHE79       0.2264
     37  O         78.1660  113.5710   45.8110 O.2    79  PHE79      -0.2867
     38  CB        77.3030  110.6640   44.8900 C.3    79  PHE79       0.0534
     39  CG        76.4110  109.7610   44.1020 C.ar   79  PHE79      -0.0203
     40  CD1       76.0450  110.0890   42.7960 C.ar   79  PHE79      -0.0042
     41  CD2       75.9440  108.5740   44.6530 C.ar   79  PHE79      -0.0042
     42  CE1       75.2200  109.2580   42.0590 C.ar   79  PHE79      -0.0003
     43  CE2       75.1120  107.7290   43.9180 C.ar   79  PHE79      -0.0003
     44  CZ        74.7540  108.0690   42.6210 C.ar   79  PHE79      -0.0000
     45  N         80.7770  109.1850   48.1870 N.3    82  GLY82      -0.1210
     46  CA        80.2960  107.8570   47.8120 C.3    82  GLY82       0.1956
     47  C         78.9290  107.4640   48.3450 C.2    82  GLY82       0.2612
     48  O         78.5370  106.3030   48.2340 O.2    82  GLY82      -0.2717
     49  N         78.2030  108.4170   48.9300 N.am   83  LEU83      -0.1965
     50  CA        76.8590  108.1490   49.4420 C.3    83  LEU83       0.1728
     51  C         75.8200  108.9280   48.6490 C.2    83  LEU83       0.2616
     52  O         76.0140  110.1150   48.3670 O.2    83  LEU83      -0.2715
     53  CB        76.7590  108.4890   50.9320 C.3    83  LEU83       0.0311
     54  CG        77.7490  107.8320   51.9100 C.3    83  LEU83       0.0022
     55  CD1       77.5770  108.4050   53.3100 C.3    83  LEU83       0.0001
     56  CD2       77.6030  106.3110   51.9300 C.3    83  LEU83       0.0001
     57  N         74.7270  108.2550   48.2840 N.am   84  ARG84      -0.1977
     58  CA        73.6480  108.8990   47.5380 C.3    84  ARG84       0.1597
     59  C         72.8010  109.7840   48.4420 C.2    84  ARG84       0.2287
     60  O         72.2920  109.3240   49.4580 O.2    84  ARG84      -0.2864
     61  CB        72.7410  107.8630   46.8530 C.3    84  ARG84       0.0334
     62  CG        71.5640  108.4850   46.0940 C.3    84  ARG84       0.0492
     63  CD        70.6190  107.4520   45.4580 C.3    84  ARG84       0.2205
     64  NE        71.3340  106.3650   44.7870 N.pl3  84  ARG84      -0.0865
     65  CZ        71.7760  106.4110   43.5360 C.cat  84  ARG84       0.5346
     66  NH1       71.5730  107.4930   42.7900 N.pl3  84  ARG84       0.1354
     67  NH2       72.4220  105.3680   43.0270 N.pl3  84  ARG84       0.1354
     68  N         65.0420  103.5960   44.9310 N.3    94  VAL94      -0.1245
     69  CA        66.1960  102.8220   45.3860 C.3    94  VAL94       0.1561
     70  C         65.7620  101.4140   45.7760 C.2    94  VAL94       0.2260
     71  O         66.3540  100.4180   45.3330 O.2    94  VAL94      -0.2867
     72  CB        66.9580  103.5320   46.5520 C.3    94  VAL94       0.0252
     73  CG1       67.9330  102.5800   47.2540 C.3    94  VAL94       0.0019
     74  CG2       67.7120  104.7550   46.0310 C.3    94  VAL94       0.0019
     75  N         66.8940   98.0110   43.6430 N.3    98  LEU98      -0.1245
     76  CA        67.7750   97.0880   44.3490 C.3    98  LEU98       0.1561
     77  C         67.1130   95.7520   44.6810 C.2    98  LEU98       0.2260
     78  O         67.7050   94.6970   44.4600 O.2    98  LEU98      -0.2867
     79  CB        68.3420   97.7310   45.6290 C.3    98  LEU98       0.0270
     80  CG        69.2960   98.9220   45.4950 C.3    98  LEU98       0.0019
     81  CD1       69.8170   99.3390   46.8660 C.3    98  LEU98       0.0001
     82  CD2       70.4590   98.6120   44.5560 C.3    98  LEU98       0.0001
     83  N         69.4770  108.4960   54.1820 N.3   142  VAL142     -0.1245
     84  CA        70.6500  107.6220   54.1810 C.3   142  VAL142      0.1561
     85  C         70.8340  107.0410   55.5800 C.2   142  VAL142      0.2260
     86  O         70.8530  107.7750   56.5770 O.2   142  VAL142     -0.2867
     87  CB        71.9340  108.3710   53.7380 C.3   142  VAL142      0.0252
     88  CG1       73.2030  107.5180   53.9590 C.3   142  VAL142      0.0019
     89  CG2       71.8240  108.7920   52.2830 C.3   142  VAL142      0.0019
     90  N         70.4960   96.1060   50.1570 N.3   167  SER167     -0.1217
     91  CA        70.9420   97.0180   51.2090 C.3   167  SER167      0.1889
     92  C         69.9280   98.1000   51.5970 C.2   167  SER167      0.2288
     93  O         70.2970   99.2480   51.8340 O.2   167  SER167     -0.2866
     94  CB        72.2640   97.6620   50.7860 C.3   167  SER167      0.2089
     95  OG        72.1220   98.3380   49.5410 O.3   167  SER167     -0.2183
     96  N         68.1240  104.1310   52.9840 N.3   178  ASN178     -0.1225
     97  CA        69.0840  103.6720   51.9970 C.3   178  ASN178      0.1785
     98  C         70.4460  103.5330   52.6690 C.2   178  ASN178      0.2597
     99  O         71.0110  104.5120   53.1560 O.2   178  ASN178     -0.2718
    100  CB        69.1330  104.6580   50.8230 C.3   178  ASN178      0.1169
    101  CG        70.1190  104.2500   49.7500 C.2   178  ASN178      0.2627
    102  OD1       70.6250  103.1290   49.7480 O.2   178  ASN178     -0.2716
    103  ND2       70.4010  105.1670   48.8270 N.am  178  ASN178     -0.0877
    104  N         70.9430  102.3010   52.7350 N.am  179  ILE179     -0.1966
    105  CA        72.2610  102.0140   53.3030 C.3   179  ILE179      0.1727
    106  C         73.2180  101.6170   52.1840 C.2   179  ILE179      0.2616
    107  O         72.8830  100.7660   51.3590 O.2   179  ILE179     -0.2715
    108  CB        72.1900  100.8800   54.3500 C.3   179  ILE179      0.0290
    109  CG1       71.0870  101.1660   55.3780 C.3   179  ILE179      0.0022
    110  CG2       73.5450  100.7040   55.0500 C.3   179  ILE179      0.0023
    111  CD1       70.8970  100.0760   56.4180 C.3   179  ILE179      0.0001
    112  N         74.3940  102.2420   52.1360 N.am  180  ASN180     -0.1958
    113  CA        75.4250  101.8510   51.1650 C.3   180  ASN180      0.1819
    114  C         75.7530  100.3530   51.2610 C.2   180  ASN180      0.2621
    115  O         75.8810   99.7940   52.3640 O.2   180  ASN180     -0.2715
    116  CB        76.6910  102.6790   51.3540 C.3   180  ASN180      0.1195
    117  CG        77.6760  102.5070   50.2110 C.2   180  ASN180      0.2630
    118  OD1       78.5040  101.5960   50.2210 O.2   180  ASN180     -0.2716
    119  ND2       77.5870  103.3850   49.2150 N.am  180  ASN180     -0.0877
    120  N         75.8810   99.7030   50.1120 N.am  181  ALA181     -0.1963
    121  CA        75.9800   98.2480   50.0950 C.3   181  ALA181      0.1728
    122  C         77.2850   97.7300   50.7110 C.2   181  ALA181      0.2616
    123  O         77.3010   96.6320   51.2900 O.2   181  ALA181     -0.2715
    124  CB        75.7660   97.7100   48.6990 C.3   181  ALA181      0.0334
    125  N         78.3540   98.5290   50.6140 N.am  182  ASP182     -0.1971
    126  CA        79.6220   98.2360   51.3120 C.3   182  ASP182      0.1709
    127  C         79.4230   98.1810   52.8330 C.2   182  ASP182      0.2293
    128  O         79.8690   97.2370   53.4880 O.2   182  ASP182     -0.2864
    129  CB        80.7110   99.2700   50.9750 C.3   182  ASP182      0.1436
    130  CG        81.0020   99.3810   49.4770 C.2   182  ASP182      0.3671
    131  OD1       80.7340   98.4350   48.7140 O.co2 182  ASP182     -0.2456
    132  OD2       81.5110  100.4360   49.0520 O.co2 182  ASP182     -0.2456
@<TRIPOS>BOND
     1    13    12    2
     2    29    28    2
     3    28    27    1
     4    26    27    1
     5    12    11    1
     6    27    30    1
     7    25    24    2
     8    24    23    1
     9    11    10    1
    10    21    20    2
    11    30    32    1
    12    30    31    1
    13    20    22   am
    14    20    19    1
    15    23    22    1
    16    42    44   ar
    17    42    40   ar
    18    19    18    1
    19    31    33    1
    20    44    43   ar
    21    66    65    1
    22    40    39   ar
    23    67    65    1
    24    18    16   am
    25    65    64    2
    26    17    16    2
    27    75    76    1
    28    43    41   ar
    29    16    15    1
    30    39    41   ar
    31    39    38    1
    32    76    77    1
    33    76    79    1
    34    78    77    2
    35    82    80    1
    36    34    35    1
    37    64    63    1
    38    38    35    1
    39    68    69    1
    40    15    14    1
    41    71    70    2
    42    69    70    1
    43    69    72    1
    44    63    62    1
    45    80    79    1
    46    80    81    1
    47    35    36    1
    48    37    36    2
    49    74    72    1
    50     4     3    2
    51    62    61    1
    52     3     2    1
    53    72    73    1
    54     9     8    1
    55    61    58    1
    56     8     7    1
    57    58    57    1
    58    58    59    1
    59     7     6    1
    60    46    45    1
    61    46    47    1
    62     2     1    1
    63     2     5    1
    64    48    47    2
    65    57    51   am
    66    47    49   am
    67    52    51    2
    68    59    60    2
    69     6     5    1
    70    51    50    1
    71   124   121    1
    72   131   130   ar
    73   103   101   am
    74    49    50    1
    75   132   130   ar
    76   119   117   am
    77    50    53    1
    78   130   129    1
    79    95    94    1
    80   102   101    2
    81   101   100    1
    82   121   120    1
    83   121   122    1
    84   120   114   am
    85    90    91    1
    86   117   118    2
    87   117   116    1
    88   125   122   am
    89   125   126    1
    90   122   123    2
    91    94    91    1
    92   100    97    1
    93    53    54    1
    94   129   126    1
    95   113   114    1
    96   113   116    1
    97   113   112    1
    98    91    92    1
    99   114   115    2
   100   126   127    1
   101   107   106    2
   102    92    93    2
   103    54    56    1
   104    54    55    1
   105    97    98    1
   106    97    96    1
   107   112   106   am
   108   106   105    1
   109    89    87    1
   110    98   104   am
   111    98    99    2
   112   104   105    1
   113   127   128    2
   114   105   108    1
   115    87    88    1
   116    87    84    1
   117    84    83    1
   118    84    85    1
   119   108   110    1
   120   108   109    1
   121   109   111    1
   122    85    86    2
