@<TRIPOS>MOLECULE
tmp/2rd6A00.pdb
 123 119 0 0 0
SMALL
GASTEIGER

@<TRIPOS>ATOM
      1  N         16.5960   64.8950    1.5370 N.3   102  GLU102     -0.1245
      2  CA        17.0270   65.9500    2.4490 C.3   102  GLU102      0.1567
      3  C         15.8780   66.9040    2.6930 C.2   102  GLU102      0.2260
      4  O         15.7070   67.4120    3.8010 O.2   102  GLU102     -0.2867
      5  CB        18.2230   66.7230    1.8810 C.3   102  GLU102      0.0388
      6  CG        19.5470   65.9910    1.9950 C.3   102  GLU102      0.1160
      7  CD        20.7220   66.8070    1.4810 C.2   102  GLU102      0.3649
      8  OE1       21.8760   66.4260    1.7750 O.co2 102  GLU102     -0.2457
      9  OE2       20.4970   67.8240    0.7810 O.co2 102  GLU102     -0.2457
     10  N         13.1870   65.2600    4.9200 N.3   105  ASP105     -0.1239
     11  CA        13.7060   65.2660    6.2900 C.3   105  ASP105      0.1674
     12  C         13.2940   66.5750    6.9740 C.2   105  ASP105      0.2266
     13  O         12.7030   66.5880    8.0660 O.2   105  ASP105     -0.2867
     14  CB        15.2310   65.1960    6.2590 C.3   105  ASP105      0.1410
     15  CG        15.7660   63.8490    6.6770 C.2   105  ASP105      0.3668
     16  OD1       15.4710   62.8390    5.9970 O.co2 105  ASP105     -0.2456
     17  OD2       16.4920   63.8070    7.6970 O.co2 105  ASP105     -0.2456
     18  N         27.0160   69.1360   16.0050 N.3   201  HIS201     -0.1226
     19  CA        25.9270   68.6720   15.1520 C.3   201  HIS201      0.1752
     20  C         25.1530   69.9040   14.7150 C.2   201  HIS201      0.2596
     21  O         24.5180   70.5720   15.5300 O.2   201  HIS201     -0.2718
     22  CB        24.9680   67.7120   15.8600 C.3   201  HIS201      0.0759
     23  CG        23.9410   67.1160   14.9400 C.ar  201  HIS201      0.0818
     24  ND1       24.1700   65.9680   14.2080 N.ar  201  HIS201     -0.2268
     25  CD2       22.7110   67.5490   14.5760 C.ar  201  HIS201      0.1154
     26  CE1       23.1290   65.7230   13.4330 C.ar  201  HIS201      0.1986
     27  NE2       22.2310   66.6690   13.6340 N.ar  201  HIS201     -0.2212
     28  N         25.2460   70.2210   13.4250 N.am  202  GLY202     -0.1957
     29  CA        24.5500   71.3740   12.9080 C.3   202  GLY202      0.1869
     30  C         23.2540   70.9280   12.2720 C.2   202  GLY202      0.2309
     31  O         23.0770   69.7430   11.9870 O.2   202  GLY202     -0.2863
     32  N         22.8580   59.0940    0.5270 N.3   227  GLY227     -0.1210
     33  CA        22.9280   60.3490    1.2490 C.3   227  GLY227      0.1956
     34  C         23.5480   60.1630    2.6200 C.2   227  GLY227      0.2612
     35  O         23.9860   61.1280    3.2480 O.2   227  GLY227     -0.2717
     36  N         23.5760   58.9230    3.0930 N.am  228  TYR228     -0.1962
     37  CA        24.1740   58.6140    4.3860 C.3   228  TYR228      0.1771
     38  C         25.4380   57.8040    4.1220 C.2   228  TYR228      0.2619
     39  O         25.3720   56.6000    3.9060 O.2   228  TYR228     -0.2715
     40  CB        23.2170   57.7930    5.2550 C.3   228  TYR228      0.0574
     41  CG        21.8840   58.4500    5.5350 C.ar  228  TYR228     -0.0198
     42  CD1       20.8110   58.2990    4.6640 C.ar  228  TYR228     -0.0009
     43  CD2       21.6970   59.2300    6.6710 C.ar  228  TYR228     -0.0009
     44  CE1       19.5880   58.9090    4.9200 C.ar  228  TYR228      0.0417
     45  CE2       20.4860   59.8410    6.9310 C.ar  228  TYR228      0.0417
     46  CZ        19.4380   59.6760    6.0510 C.ar  228  TYR228      0.1957
     47  OH        18.2400   60.2940    6.3040 O.3   228  TYR228     -0.2866
     48  N         26.5890   58.4670    4.1330 N.am  229  MET229     -0.1977
     49  CA        27.8580   57.7920    3.8800 C.3   229  MET229      0.1605
     50  C         28.0720   56.5140    4.6630 C.2   229  MET229      0.2287
     51  O         28.6700   55.5820    4.1480 O.2   229  MET229     -0.2864
     52  CB        29.0390   58.7210    4.1680 C.3   229  MET229      0.0413
     53  CG        29.3320   59.7210    3.0780 C.3   229  MET229      0.0598
     54  SD        30.9220   60.4780    3.3630 S.3   229  MET229     -0.1393
     55  CE        32.0040   59.2690    2.6890 C.3   229  MET229      0.0692
     56  N         22.1970   56.7090   10.6970 N.3   233  GLY233     -0.1225
     57  CA        22.6060   56.8830   12.0730 C.3   233  GLY233      0.1811
     58  C         22.5570   58.3400   12.4540 C.2   233  GLY233      0.2280
     59  O         21.8820   59.1380   11.8110 O.2   233  GLY233     -0.2866
     60  N         24.9500   61.5270   13.0050 N.3   235  TYR235     -0.1227
     61  CA        26.2760   62.0320   12.6580 C.3   235  TYR235      0.1736
     62  C         26.7650   63.2340   13.4450 C.2   235  TYR235      0.2595
     63  O         26.0040   64.1670   13.7140 O.2   235  TYR235     -0.2718
     64  CB        26.2960   62.3950   11.1670 C.3   235  TYR235      0.0548
     65  CG        26.1380   61.2010   10.2470 C.ar  235  TYR235     -0.0200
     66  CD1       25.1230   60.2750   10.4430 C.ar  235  TYR235     -0.0009
     67  CD2       27.0260   60.9900    9.1900 C.ar  235  TYR235     -0.0009
     68  CE1       24.9890   59.1710    9.6170 C.ar  235  TYR235      0.0417
     69  CE2       26.9080   59.9010    8.3680 C.ar  235  TYR235      0.0417
     70  CZ        25.8860   58.9860    8.5800 C.ar  235  TYR235      0.1957
     71  OH        25.7700   57.8920    7.7540 O.3   235  TYR235     -0.2866
     72  N         28.0450   63.2080   13.8050 N.am  236  PHE236     -0.1962
     73  CA        28.6660   64.3250   14.5090 C.3   236  PHE236      0.1771
     74  C         30.0430   64.6210   13.8990 C.2   236  PHE236      0.2619
     75  O         30.6170   63.7840   13.1980 O.2   236  PHE236     -0.2715
     76  CB        28.8420   64.0210   16.0040 C.3   236  PHE236      0.0574
     77  CG        27.5590   63.7330   16.7280 C.ar  236  PHE236     -0.0200
     78  CD1       26.9570   62.4870   16.6330 C.ar  236  PHE236     -0.0042
     79  CD2       26.9460   64.7070   17.4920 C.ar  236  PHE236     -0.0042
     80  CE1       25.7710   62.2300   17.2910 C.ar  236  PHE236     -0.0003
     81  CE2       25.7550   64.4550   18.1530 C.ar  236  PHE236     -0.0003
     82  CZ        25.1670   63.2220   18.0540 C.ar  236  PHE236     -0.0000
     83  N         30.5570   65.8180   14.1540 N.am  237  ALA237     -0.1977
     84  CA        31.8870   66.1990   13.6860 C.3   237  ALA237      0.1597
     85  C         32.6770   66.7400   14.8770 C.2   237  ALA237      0.2287
     86  O         32.0840   67.1350   15.8830 O.2   237  ALA237     -0.2864
     87  CB        31.7940   67.2640   12.6160 C.3   237  ALA237      0.0319
     88  N         32.8010   71.5620    9.8170 N.3   242  LYS242     -0.1231
     89  CA        32.0510   70.4790    9.2070 C.3   242  LYS242      0.1693
     90  C         30.5630   70.5720    9.5030 C.2   242  LYS242      0.2592
     91  O         29.7430   70.4780    8.5950 O.2   242  LYS242     -0.2718
     92  CB        32.5770   69.1310    9.7000 C.3   242  LYS242      0.0285
     93  CG        31.7900   67.9570    9.1740 C.3   242  LYS242      0.0035
     94  CD        31.7440   67.9750    7.6520 C.3   242  LYS242      0.0206
     95  CE        31.1730   66.6860    7.1020 C.3   242  LYS242      0.1093
     96  NZ        31.1700   66.7010    5.6070 N.3   242  LYS242     -0.1314
     97  N         30.2240   70.7600   10.7750 N.am  243  SER243     -0.1952
     98  CA        28.8310   70.8440   11.2030 C.3   243  SER243      0.1924
     99  C         28.1260   72.1220   10.7650 C.2   243  SER243      0.2314
    100  O         26.9650   72.0800   10.3700 O.2   243  SER243     -0.2863
    101  CB        28.7290   70.7130   12.7360 C.3   243  SER243      0.2116
    102  OG        28.9230   69.3810   13.1650 O.3   243  SER243     -0.2180
    103  N         25.8120   72.5070    7.7700 N.3   246  TYR246     -0.1241
    104  CA        24.4710   71.9180    7.7400 C.3   246  TYR246      0.1605
    105  C         23.4260   72.8360    8.3640 C.2   246  TYR246      0.2264
    106  O         22.2690   72.4580    8.5260 O.2   246  TYR246     -0.2867
    107  CB        24.4780   70.5530    8.4360 C.3   246  TYR246      0.0534
    108  CG        25.3560   69.5570    7.7230 C.ar  246  TYR246     -0.0201
    109  CD1       24.9920   69.0400    6.4830 C.ar  246  TYR246     -0.0009
    110  CD2       26.5850   69.1820    8.2490 C.ar  246  TYR246     -0.0009
    111  CE1       25.8370   68.1790    5.7840 C.ar  246  TYR246      0.0417
    112  CE2       27.4340   68.3240    7.5620 C.ar  246  TYR246      0.0417
    113  CZ        27.0520   67.8300    6.3270 C.ar  246  TYR246      0.1957
    114  OH        27.9040   67.0080    5.6260 O.3   246  TYR246     -0.2866
    115  N         34.2840   62.3350   11.0520 N.3   327  GLU327     -0.1245
    116  CA        32.8460   62.1920   11.0900 C.3   327  GLU327      0.1567
    117  C         32.5660   61.0230   12.0340 C.2   327  GLU327      0.2260
    118  O         33.1700   59.9620   11.8910 O.2   327  GLU327     -0.2867
    119  CB        32.4060   61.8980    9.6500 C.3   327  GLU327      0.0388
    120  CG        30.9540   61.6610    9.3730 C.3   327  GLU327      0.1160
    121  CD        30.6850   61.6460    7.8690 C.2   327  GLU327      0.3649
    122  OE1       29.7380   60.9770    7.4230 O.co2 327  GLU327     -0.2457
    123  OE2       31.4250   62.3160    7.1230 O.co2 327  GLU327     -0.2457
@<TRIPOS>BOND
     1    32    33    1
     2     9     7   ar
     3    33    34    1
     4     7     8   ar
     5     7     6    1
     6     1     2    1
     7     5     6    1
     8     5     2    1
     9     2     3    1
    10    34    36   am
    11    34    35    2
    12    55    54    1
    13     3     4    2
    14    53    54    1
    15    53    52    1
    16    36    37    1
    17    49    48    1
    18    49    52    1
    19    49    50    1
    20    39    38    2
    21    38    48   am
    22    38    37    1
    23    51    50    2
    24    37    40    1
    25    42    44   ar
    26    42    41   ar
    27    10    11    1
    28    44    46   ar
    29    40    41    1
    30    41    43   ar
    31    96    95    1
    32   114   113    1
    33   111   113   ar
    34   111   109   ar
    35    16    15   ar
    36    46    47    1
    37    46    45   ar
    38    14    11    1
    39    14    15    1
    40    11    12    1
    41   113   112   ar
    42   109   108   ar
    43    43    45   ar
    44    15    17   ar
    45    12    13    2
    46    95    94    1
    47   123   121   ar
    48   122   121   ar
    49   112   110   ar
    50    94    93    1
    51   108   110   ar
    52   108   107    1
    53   104   103    1
    54   104   105    1
    55   104   107    1
    56    71    70    1
    57   121   120    1
    58   105   106    2
    59    69    70   ar
    60    69    67   ar
    61    70    68   ar
    62    91    90    2
    63    93    92    1
    64    67    65   ar
    65    89    90    1
    66    89    92    1
    67    89    88    1
    68   120   119    1
    69    90    97   am
    70    68    66   ar
    71   119   116    1
    72    65    66   ar
    73    65    64    1
    74   100    99    2
    75    56    57    1
    76    99    98    1
    77    97    98    1
    78   115   116    1
    79   116   117    1
    80    64    61    1
    81    98   101    1
    82    59    58    2
    83   118   117    2
    84    31    30    2
    85    57    58    1
    86    30    29    1
    87    87    84    1
    88    61    60    1
    89    61    62    1
    90   101   102    1
    91    29    28    1
    92    75    74    2
    93    28    20   am
    94    26    27   ar
    95    26    24   ar
    96    62    63    2
    97    62    72   am
    98    27    25   ar
    99    84    83    1
   100    84    85    1
   101    72    73    1
   102    74    83   am
   103    74    73    1
   104    24    23   ar
   105    73    76    1
   106    25    23   ar
   107    20    19    1
   108    20    21    2
   109    85    86    2
   110    23    22    1
   111    19    22    1
   112    19    18    1
   113    76    77    1
   114    78    77   ar
   115    78    80   ar
   116    77    79   ar
   117    80    82   ar
   118    79    81   ar
   119    82    81   ar
