@<TRIPOS>MOLECULE
tmp/2rdbA00.pdb
 165 154 0 0 0
SMALL
GASTEIGER

@<TRIPOS>ATOM
      1  N         96.0780  -36.9530   43.4790 N.3    30  GLU30      -0.1231
      2  CA        97.0700  -36.5300   44.4470 C.3    30  GLU30       0.1699
      3  C         98.4370  -36.5470   43.7480 C.2    30  GLU30       0.2592
      4  O         99.2020  -35.6040   43.9380 O.2    30  GLU30      -0.2718
      5  CB        97.0000  -37.4540   45.6970 C.3    30  GLU30       0.0402
      6  CG        98.0190  -37.1470   46.6820 C.3    30  GLU30       0.1161
      7  CD        97.7530  -35.8630   47.4620 C.2    30  GLU30       0.3649
      8  OE1       96.6250  -35.3200   47.4780 O.co2  30  GLU30      -0.2457
      9  OE2       98.7000  -35.3660   48.0870 O.co2  30  GLU30      -0.2457
     10  N         98.7290  -37.5230   42.8560 N.am   31  GLU31      -0.1966
     11  CA       100.0220  -37.4190   42.0920 C.3    31  GLU31       0.1733
     12  C        100.0970  -36.1500   41.1760 C.2    31  GLU31       0.2616
     13  O        101.1900  -35.6990   40.7340 O.2    31  GLU31      -0.2715
     14  CB       100.2320  -38.6160   41.1710 C.3    31  GLU31       0.0429
     15  CG        99.2520  -38.6330   40.0290 C.3    31  GLU31       0.1163
     16  CD        99.1740  -39.9910   39.3930 C.2    31  GLU31       0.3649
     17  OE1       99.9560  -40.2280   38.4650 O.co2  31  GLU31      -0.2457
     18  OE2       98.2990  -40.8080   39.7370 O.co2  31  GLU31      -0.2457
     19  N         98.9760  -35.5460   40.8520 N.am   32  MET32      -0.1977
     20  CA        99.1440  -34.2500   40.1130 C.3    32  MET32       0.1605
     21  C         99.0260  -33.0040   40.9670 C.2    32  MET32       0.2287
     22  O         99.6260  -31.9920   40.6800 O.2    32  MET32      -0.2864
     23  CB        98.1840  -34.2010   38.9560 C.3    32  MET32       0.0413
     24  CG        98.4750  -35.3880   38.0570 C.3    32  MET32       0.0598
     25  SD       100.0990  -35.2060   37.2700 S.3    32  MET32      -0.1393
     26  CE        99.6180  -34.9380   35.4200 C.3    32  MET32       0.0692
     27  N         97.7910  -33.2720   49.8810 N.3    36  ARG36      -0.1245
     28  CA        98.5120  -33.8320   51.0770 C.3    36  ARG36       0.1563
     29  C         97.5710  -33.9990   52.2980 C.2    36  ARG36       0.2260
     30  O         97.9920  -33.8480   53.4670 O.2    36  ARG36      -0.2867
     31  CB        99.8530  -33.0960   51.4140 C.3    36  ARG36       0.0307
     32  CG       101.0710  -33.4500   50.4910 C.3    36  ARG36       0.0489
     33  CD       102.1280  -32.4200   50.4140 C.3    36  ARG36       0.2205
     34  NE       103.2430  -32.9480   49.6380 N.pl3  36  ARG36      -0.0865
     35  CZ       103.3710  -32.8190   48.3220 C.cat  36  ARG36       0.5346
     36  NH1      102.4350  -32.2120   47.6020 N.pl3  36  ARG36       0.1354
     37  NH2      104.4350  -33.3200   47.6940 N.pl3  36  ARG36       0.1354
     38  N        101.0760  -27.1900   35.2220 N.3   112  ARG112     -0.1245
     39  CA       100.8150  -28.2360   36.2030 C.3   112  ARG112      0.1563
     40  C        100.0330  -27.6050   37.2890 C.2   112  ARG112      0.2260
     41  O         98.9090  -28.0270   37.5990 O.2   112  ARG112     -0.2867
     42  CB       102.1210  -28.8820   36.7530 C.3   112  ARG112      0.0307
     43  CG       101.8810  -30.2910   37.6110 C.3   112  ARG112      0.0489
     44  CD       101.6670  -31.5320   36.5950 C.3   112  ARG112      0.2205
     45  NE       102.9090  -31.9010   35.8420 N.pl3 112  ARG112     -0.0865
     46  CZ       103.0090  -32.0670   34.4900 C.cat 112  ARG112      0.5346
     47  NH1      101.9980  -31.9430   33.7050 N.pl3 112  ARG112      0.1354
     48  NH2      104.1470  -32.3780   33.8870 N.pl3 112  ARG112      0.1354
     49  N        108.0270  -33.4500   37.0810 N.3   181  THR181     -0.1203
     50  CA       107.6050  -34.8310   37.5600 C.3   181  THR181      0.1994
     51  C        107.0960  -34.7980   38.9870 C.2   181  THR181      0.2618
     52  O        107.0390  -35.8020   39.6570 O.2   181  THR181     -0.2717
     53  CB       108.7690  -35.9260   37.4140 C.3   181  THR181      0.1784
     54  OG1      109.9040  -35.6430   38.2720 O.3   181  THR181     -0.2211
     55  CG2      109.3050  -36.1980   35.9430 C.3   181  THR181      0.0376
     56  N        106.8720  -33.5730   39.4730 N.am  182  ARG182     -0.1965
     57  CA       106.3590  -33.2840   40.7980 C.3   182  ARG182      0.1729
     58  C        104.8560  -32.8130   40.7380 C.2   182  ARG182      0.2616
     59  O        104.4100  -32.1820   39.7350 O.2   182  ARG182     -0.2715
     60  CB       107.1910  -32.1050   41.3070 C.3   182  ARG182      0.0348
     61  CG       108.7540  -32.3610   41.6210 C.3   182  ARG182      0.0492
     62  CD       109.0130  -33.5460   42.4880 C.3   182  ARG182      0.2205
     63  NE       110.4620  -33.7780   42.8370 N.pl3 182  ARG182     -0.0865
     64  CZ       110.8440  -34.3900   43.9670 C.cat 182  ARG182      0.5346
     65  NH1      109.9160  -34.7250   44.8670 N.pl3 182  ARG182      0.1354
     66  NH2      112.1500  -34.6470   44.2430 N.pl3 182  ARG182      0.1354
     67  N        104.1270  -33.0930   41.8370 N.am  183  ASP183     -0.1971
     68  CA       102.7630  -32.6940   42.0950 C.3   183  ASP183      0.1709
     69  C        102.7530  -31.1930   42.2970 C.2   183  ASP183      0.2293
     70  O        103.7490  -30.6280   42.7730 O.2   183  ASP183     -0.2864
     71  CB       102.2570  -33.4160   43.3220 C.3   183  ASP183      0.1436
     72  CG       102.8740  -32.9200   44.5710 C.2   183  ASP183      0.3671
     73  OD1      102.7540  -31.7280   44.8920 O.co2 183  ASP183     -0.2456
     74  OD2      103.5300  -33.7240   45.2710 O.co2 183  ASP183     -0.2456
     75  N        104.4670  -29.5220   45.3570 N.3   186  ALA186     -0.1245
     76  CA       105.9120  -29.7800   45.2740 C.3   186  ALA186      0.1562
     77  C        106.5320  -28.8890   44.3280 C.2   186  ALA186      0.2260
     78  O        107.5580  -28.3510   44.6550 O.2   186  ALA186     -0.2867
     79  CB       106.1340  -31.1440   44.7780 C.3   186  ALA186      0.0290
     80  N        109.6760  -26.4070   45.1480 N.3   190  MET190     -0.1245
     81  CA       110.9410  -26.7910   44.5300 C.3   190  MET190      0.1570
     82  C        111.3800  -25.8820   43.5010 C.2   190  MET190      0.2261
     83  O        112.5210  -25.4540   43.5350 O.2   190  MET190     -0.2867
     84  CB       110.8700  -28.1840   43.9910 C.3   190  MET190      0.0387
     85  CG       110.6660  -29.0780   45.1370 C.3   190  MET190      0.0595
     86  SD       110.6280  -30.8990   45.2700 S.3   190  MET190     -0.1393
     87  CE       112.3890  -31.2930   45.2490 C.3   190  MET190      0.0692
     88  N        107.6370  -32.4620   55.5470 N.3   252  GLU252     -0.1245
     89  CA       107.5270  -32.6840   54.0970 C.3   252  GLU252      0.1567
     90  C        107.9490  -31.4220   53.3750 C.2   252  GLU252      0.2260
     91  O        108.7500  -31.4850   52.4370 O.2   252  GLU252     -0.2867
     92  CB       106.0930  -32.9480   53.7330 C.3   252  GLU252      0.0388
     93  CG       105.5270  -34.2010   54.2440 C.3   252  GLU252      0.1160
     94  CD       105.2740  -34.2640   55.7800 C.2   252  GLU252      0.3649
     95  OE1      105.6460  -33.3650   56.6330 O.co2 252  GLU252     -0.2457
     96  OE2      104.6260  -35.2820   56.0890 O.co2 252  GLU252     -0.2457
     97  N        111.7120  -31.2240   53.9060 N.3   255  GLN255     -0.1231
     98  CA       112.3760  -32.1070   53.0320 C.3   255  GLN255      0.1698
     99  C        112.4620  -31.6670   51.5690 C.2   255  GLN255      0.2595
    100  O        113.4930  -31.8280   50.9960 O.2   255  GLN255     -0.2718
    101  CB       111.7780  -33.4580   53.1480 C.3   255  GLN255      0.0381
    102  CG       112.8150  -34.4750   52.9130 C.3   255  GLN255      0.0905
    103  CD       112.1970  -35.7150   52.4760 C.2   255  GLN255      0.2608
    104  OE1      112.1670  -36.6530   53.2160 O.2   255  GLN255     -0.2717
    105  NE2      111.6110  -35.7160   51.2740 N.am  255  GLN255     -0.0878
    106  N        111.4350  -31.0610   50.9680 N.am  256  MET256     -0.1934
    107  CA       111.5280  -30.6150   49.5030 C.3   256  MET256      0.1821
    108  C        112.3900  -29.3880   49.3550 C.2   256  MET256      0.2332
    109  O        113.0620  -29.1690   48.3280 O.2   256  MET256     -0.2860
    110  CB       110.1520  -30.3740   48.7760 C.2   256  MET256      0.0096
    111  CG       109.0220  -31.1980   49.2510 C.2   256  MET256      0.0285
    112  SD       107.3660  -31.1400   48.5050 S.3   256  MET256     -0.1125
    113  CE       106.3640  -30.7840   49.9670 C.3   256  MET256      0.0742
    114  N        116.1120  -30.7750   49.5580 N.3   259  VAL259     -0.1245
    115  CA       116.3150  -31.3560   48.2020 C.3   259  VAL259      0.1561
    116  C        116.5150  -30.3280   47.1560 C.2   259  VAL259      0.2260
    117  O        117.5220  -30.3300   46.4530 O.2   259  VAL259     -0.2867
    118  CB       115.2020  -32.3530   47.8170 C.3   259  VAL259      0.0252
    119  CG1      115.3470  -32.8950   46.3710 C.3   259  VAL259      0.0019
    120  CG2      115.2870  -33.4770   48.7230 C.3   259  VAL259      0.0019
    121  N        119.8890  -37.1580   48.7450 N.3   435  CYS435     -0.1235
    122  CA       118.7380  -36.9500   47.8350 C.3   435  CYS435      0.1677
    123  C        118.2120  -38.2380   47.2470 C.2   435  CYS435      0.2270
    124  O        117.0210  -38.5090   47.2140 O.2   435  CYS435     -0.2867
    125  CB       119.0680  -35.9990   46.7090 C.3   435  CYS435      0.0956
    126  SG       119.3390  -34.3290   47.2640 S.3   435  CYS435     -0.0801
    127  N        116.5290  -40.8580   50.2210 N.3   438  ILE438     -0.1231
    128  CA       115.1840  -40.4850   50.8120 C.3   438  ILE438      0.1692
    129  C        114.1210  -40.8470   49.7790 C.2   438  ILE438      0.2592
    130  O        112.9550  -41.0100   50.1090 O.2   438  ILE438     -0.2718
    131  CB       115.0500  -38.9950   51.2020 C.3   438  ILE438      0.0266
    132  CG1      115.4150  -38.0890   50.0470 C.3   438  ILE438      0.0019
    133  CG2      115.9470  -38.6790   52.3490 C.3   438  ILE438      0.0020
    134  CD1      114.8750  -36.6590   50.2050 C.3   438  ILE438      0.0001
    135  N        114.5140  -41.0200   48.5040 N.am  439  ASP439     -0.1974
    136  CA       113.5160  -41.3780   47.5530 C.3   439  ASP439      0.1709
    137  C        114.1420  -42.1540   46.4200 C.2   439  ASP439      0.2293
    138  O        114.2870  -41.5490   45.3220 O.2   439  ASP439     -0.2864
    139  CB       112.9950  -40.0300   46.9960 C.3   439  ASP439      0.1436
    140  CG       111.6110  -40.1130   46.2560 C.2   439  ASP439      0.3671
    141  OD1      110.9310  -41.2000   46.2810 O.co2 439  ASP439     -0.2456
    142  OD2      111.2250  -39.0210   45.6660 O.co2 439  ASP439     -0.2456
    143  N        112.5720  -42.7670   42.8300 N.3   442  ARG442     -0.1231
    144  CA       112.6510  -41.6300   41.9180 C.3   442  ARG442      0.1694
    145  C        113.7900  -41.6980   40.9740 C.2   442  ARG442      0.2592
    146  O        113.6380  -41.2840   39.8120 O.2   442  ARG442     -0.2718
    147  CB       112.6890  -40.3310   42.6990 C.3   442  ARG442      0.0321
    148  CG       112.7970  -39.0210   41.8580 C.3   442  ARG442      0.0489
    149  CD       112.2430  -37.8630   42.7290 C.3   442  ARG442      0.2205
    150  NE       110.7580  -37.8050   42.5780 N.pl3 442  ARG442     -0.0865
    151  CZ       110.1500  -37.0320   41.6790 C.cat 442  ARG442      0.5346
    152  NH1      110.8740  -36.3170   40.7760 N.pl3 442  ARG442      0.1354
    153  NH2      108.8540  -37.0330   41.6200 N.pl3 442  ARG442      0.1354
    154  N        114.8950  -42.2800   41.4480 N.am  443  TYR443     -0.1976
    155  CA       116.1750  -42.2570   40.7330 C.3   443  TYR443      0.1639
    156  C        116.7620  -43.5790   40.2460 C.2   443  TYR443      0.2290
    157  O        117.5310  -43.5810   39.2890 O.2   443  TYR443     -0.2864
    158  CB       117.2270  -41.6310   41.6840 C.3   443  TYR443      0.0560
    159  CG       116.7770  -40.2900   42.2250 C.ar  443  TYR443     -0.0198
    160  CD1      116.3040  -40.1490   43.5390 C.ar  443  TYR443     -0.0009
    161  CD2      116.8190  -39.1590   41.3950 C.ar  443  TYR443     -0.0009
    162  CE1      115.8500  -38.8490   43.9770 C.ar  443  TYR443      0.0417
    163  CE2      116.4100  -37.9130   41.8200 C.ar  443  TYR443      0.0417
    164  CZ       115.9480  -37.7610   43.0960 C.ar  443  TYR443      0.1957
    165  OH       115.6070  -36.4600   43.3960 O.3   443  TYR443     -0.2866
@<TRIPOS>BOND
     1    47    46    1
     2    48    46    1
     3    46    45    2
     4    38    39    1
     5    26    25    1
     6    45    44    1
     7    55    53    1
     8    39    42    1
     9    39    40    1
    10    44    43    1
    11    42    43    1
    12    49    50    1
    13    25    24    1
    14    40    41    2
    15    53    50    1
    16    53    54    1
    17    50    51    1
    18    24    23    1
    19    17    16   ar
    20    23    20    1
    21    51    56   am
    22    51    52    2
    23   157   156    2
    24    16    18   ar
    25    16    15    1
    26    56    57    1
    27    59    58    2
    28   146   145    2
    29    15    14    1
    30    20    19    1
    31    20    21    1
    32   156   155    1
    33    22    21    2
    34   155   154    1
    35   155   158    1
    36    13    12    2
    37    58    57    1
    38    58    67   am
    39   152   151    1
    40    57    60    1
    41    19    12   am
    42   145   154   am
    43   145   144    1
    44    14    11    1
    45    12    11    1
    46    60    61    1
    47   161   163   ar
    48   161   159   ar
    49   153   151    1
    50    61    62    1
    51   151   150    2
    52   158   159    1
    53   163   164   ar
    54    67    68    1
    55   148   147    1
    56   148   149    1
    57   144   147    1
    58   144   143    1
    59    11    10    1
    60    68    69    1
    61    68    71    1
    62   159   160   ar
    63    69    70    2
    64    62    63    1
    65   150   149    1
    66    63    64    2
    67    10     3   am
    68   164   165    1
    69   164   162   ar
    70    71    72    1
    71     1     2    1
    72    82    83    2
    73    82    81    1
    74   160   162   ar
    75     3     4    2
    76     3     2    1
    77    64    66    1
    78    64    65    1
    79    84    81    1
    80    84    85    1
    81    77    78    2
    82    77    76    1
    83     2     5    1
    84    81    80    1
    85    72    73   ar
    86    72    74   ar
    87    79    76    1
    88    85    86    1
    89    87    86    1
    90    76    75    1
    91   138   137    2
    92   142   140   ar
    93     5     6    1
    94   140   141   ar
    95   140   139    1
    96   119   118    1
    97   137   136    1
    98   117   116    2
    99     6     7    1
   100   125   126    1
   101   125   122    1
   102   139   136    1
   103   116   115    1
   104   124   123    2
   105   123   122    1
   106     7     8   ar
   107     7     9   ar
   108   136   135    1
   109    36    35    1
   110    37    35    1
   111   118   115    1
   112   118   120    1
   113   122   121    1
   114   115   114    1
   115    35    34    2
   116   109   108    2
   117   135   129   am
   118   112   111    1
   119   112   113    1
   120   110   111    2
   121   110   107    1
   122   108   107    1
   123   107   106    1
   124    34    33    1
   125   129   130    2
   126   129   128    1
   127    27    28    1
   128   132   134    1
   129   132   131    1
   130   127   128    1
   131    33    32    1
   132    32    31    1
   133   128   131    1
   134   106    99   am
   135   100    99    2
   136    28    31    1
   137    28    29    1
   138   131   133    1
   139   105   103   am
   140    99    98    1
   141    29    30    2
   142    91    90    2
   143   103   102    1
   144   103   104    2
   145   102   101    1
   146    98   101    1
   147    98    97    1
   148    90    89    1
   149    92    89    1
   150    92    93    1
   151    89    88    1
   152    93    94    1
   153    94    96   ar
   154    94    95   ar
