@<TRIPOS>MOLECULE
tmp/2rdbB00.pdb
 116 117 0 0 0
SMALL
GASTEIGER

@<TRIPOS>ATOM
      1  N        109.1610  -35.8680   24.3040 N.3    32  THR32      -0.1218
      2  CA       108.8580  -36.7690   23.2210 C.3    32  THR32       0.1862
      3  C        110.1650  -37.4710   22.6170 C.2    32  THR32       0.2287
      4  O        110.0660  -38.4410   21.9160 O.2    32  THR32      -0.2866
      5  CB       108.0880  -36.0400   22.2410 C.3    32  THR32       0.1770
      6  OG1      108.7390  -34.7900   21.9520 O.3    32  THR32      -0.2211
      7  CG2      106.7640  -35.7600   22.8150 C.3    32  THR32       0.0375
      8  N         99.8540  -39.3620   26.7400 N.3    55  CYS55      -0.1221
      9  CA       100.3840  -38.6450   25.6260 C.3    55  CYS55       0.1808
     10  C        100.6570  -39.7410   24.6180 C.2    55  CYS55       0.2601
     11  O         99.9290  -39.8690   23.6320 O.2    55  CYS55      -0.2717
     12  CB       101.6630  -37.7470   25.8930 C.3    55  CYS55       0.0970
     13  SG       102.1390  -36.9690   24.2690 S.3    55  CYS55      -0.0800
     14  N        101.6340  -40.5960   24.8970 N.am   56  PHE56      -0.1976
     15  CA       102.2230  -41.4090   23.7670 C.3    56  PHE56       0.1639
     16  C        101.1960  -42.4180   23.2130 C.2    56  PHE56       0.2290
     17  O        101.1670  -42.6640   21.9790 O.2    56  PHE56      -0.2864
     18  CB       103.5290  -42.1250   24.1780 C.3    56  PHE56       0.0560
     19  CG       104.6810  -41.1420   24.4210 C.ar   56  PHE56      -0.0200
     20  CD1      105.1360  -40.3420   23.4030 C.ar   56  PHE56      -0.0042
     21  CD2      105.1930  -40.9540   25.6660 C.ar   56  PHE56      -0.0042
     22  CE1      106.1570  -39.4230   23.6460 C.ar   56  PHE56      -0.0003
     23  CE2      106.2060  -39.9980   25.9180 C.ar   56  PHE56      -0.0003
     24  CZ       106.7140  -39.3000   24.9290 C.ar   56  PHE56      -0.0000
     25  N         97.9620  -42.4150   22.9310 N.3    58  SER58      -0.1217
     26  CA        96.6870  -41.9230   22.5880 C.3    58  SER58       0.1889
     27  C         96.2640  -42.5250   21.2100 C.2    58  SER58       0.2288
     28  O         97.1140  -42.7150   20.2650 O.2    58  SER58      -0.2866
     29  CB        96.6380  -40.3920   22.5240 C.3    58  SER58       0.2089
     30  OG        95.4740  -40.0220   21.7840 O.3    58  SER58      -0.2183
     31  N         94.8110  -41.1380   19.0420 N.3    60  LEU60      -0.1231
     32  CA        94.9080  -40.1660   17.9280 C.3    60  LEU60       0.1693
     33  C         96.3650  -40.0770   17.4860 C.2    60  LEU60       0.2592
     34  O         97.1930  -39.7010   18.2800 O.2    60  LEU60      -0.2718
     35  CB        94.4170  -38.8130   18.3320 C.3    60  LEU60       0.0284
     36  CG        94.2240  -37.6700   17.3010 C.3    60  LEU60       0.0019
     37  CD1       92.9110  -37.8490   16.5560 C.3    60  LEU60       0.0001
     38  CD2       94.2080  -36.2810   18.0820 C.3    60  LEU60       0.0001
     39  N         96.6810  -40.4540   16.2330 N.am   61  LYS61      -0.1966
     40  CA        98.0710  -40.7370   15.8990 C.3    61  LYS61       0.1728
     41  C         98.5940  -39.9210   14.7520 C.2    61  LYS61       0.2616
     42  O         97.8600  -39.6210   13.8250 O.2    61  LYS61      -0.2715
     43  CB        98.3760  -42.2680   15.7720 C.3    61  LYS61       0.0311
     44  CG        97.5820  -43.1660   16.7600 C.3    61  LYS61       0.0038
     45  CD        98.2870  -44.3880   17.3740 C.3    61  LYS61       0.0206
     46  CE        97.4740  -45.7020   17.2150 C.3    61  LYS61       0.1093
     47  NZ        98.2970  -47.0130   17.4470 N.3    61  LYS61      -0.1314
     48  N         99.8870  -39.5570   14.8070 N.am   62  HIS62      -0.1959
     49  CA       100.5190  -38.9320   13.6410 C.3    62  HIS62       0.1787
     50  C        102.0370  -39.2040   13.6910 C.2    62  HIS62       0.2620
     51  O        102.5970  -39.3780   14.7920 O.2    62  HIS62      -0.2715
     52  CB       100.1720  -37.4490   13.6620 C.3    62  HIS62       0.0785
     53  CG       100.3970  -36.7520   12.3680 C.ar   62  HIS62       0.0821
     54  ND1      101.6550  -36.5070   11.8580 N.ar   62  HIS62      -0.2267
     55  CD2       99.5410  -36.1610   11.5400 C.ar   62  HIS62       0.1154
     56  CE1      101.5620  -35.8300   10.7290 C.ar   62  HIS62       0.1986
     57  NE2      100.2860  -35.5840   10.5250 N.ar   62  HIS62      -0.2212
     58  N        102.7030  -39.3280   12.5430 N.am   63  ASP63      -0.1957
     59  CA       104.1280  -39.6380   12.5870 C.3    63  ASP63       0.1840
     60  C        104.9640  -38.4640   13.1370 C.2    63  ASP63       0.2622
     61  O        105.9420  -38.7140   13.8240 O.2    63  ASP63      -0.2715
     62  CB       104.6380  -40.1530   11.2470 C.3    63  ASP63       0.1450
     63  CG       104.1700  -41.6340   10.9900 C.2    63  ASP63       0.3671
     64  OD1      103.9470  -42.0620    9.7950 O.co2  63  ASP63      -0.2456
     65  OD2      103.9540  -42.3560   12.0210 O.co2  63  ASP63      -0.2456
     66  N        104.4640  -37.2340   12.8960 N.am   64  ASP64      -0.1957
     67  CA       105.1290  -35.9160   13.0420 C.3    64  ASP64       0.1840
     68  C        104.2330  -34.7940   13.6360 C.2    64  ASP64       0.2622
     69  O        103.8540  -33.8180   12.9610 O.2    64  ASP64      -0.2715
     70  CB       105.5850  -35.4480   11.6730 C.3    64  ASP64       0.1450
     71  CG       106.7330  -34.4670   11.7570 C.2    64  ASP64       0.3671
     72  OD1      107.2220  -34.1750   12.8940 O.co2  64  ASP64      -0.2456
     73  OD2      107.1650  -33.9940   10.6680 O.co2  64  ASP64      -0.2456
     74  N        103.8830  -34.9150   14.9010 N.am   65  TRP65      -0.1960
     75  CA       103.0310  -33.8830   15.5040 C.3    65  TRP65       0.1771
     76  C        103.7250  -32.5190   15.4660 C.2    65  TRP65       0.2619
     77  O        103.0600  -31.4830   15.2960 O.2    65  TRP65      -0.2715
     78  CB       102.5390  -34.2890   16.9080 C.3    65  TRP65       0.0590
     79  CG       101.3580  -35.3390   16.9310 C.ar   65  TRP65       0.0006
     80  CD1      101.3890  -36.5970   17.5010 C.ar   65  TRP65       0.0946
     81  CD2      100.0340  -35.1750   16.3980 C.ar   65  TRP65       0.0152
     82  NE1      100.1480  -37.2150   17.3820 N.ar   65  TRP65      -0.2442
     83  CE2       99.3040  -36.3790   16.7000 C.ar   65  TRP65       0.0810
     84  CE3       99.3980  -34.1580   15.6500 C.ar   65  TRP65       0.0012
     85  CZ2       98.0020  -36.6140   16.2760 C.ar   65  TRP65       0.0191
     86  CZ3       98.0600  -34.3730   15.2620 C.ar   65  TRP65       0.0001
     87  CH2       97.3560  -35.6400   15.6240 C.ar   65  TRP65       0.0015
     88  N        105.0540  -32.4940   15.4630 N.am   66  ASN66      -0.1972
     89  CA       105.7760  -31.2030   15.3350 C.3    66  ASN66       0.1688
     90  C        105.5160  -30.4850   13.9530 C.2    66  ASN66       0.2292
     91  O        105.8140  -29.2780   13.7850 O.2    66  ASN66      -0.2864
     92  CB       107.2990  -31.3350   15.6660 C.3    66  ASN66       0.1181
     93  CG       107.6490  -31.4410   17.1800 C.2    66  ASN66       0.2629
     94  OD1      107.4260  -30.5300   18.0430 O.2    66  ASN66      -0.2716
     95  ND2      108.4160  -32.4900   17.4610 N.am   66  ASN66      -0.0877
     96  N        101.2400  -33.5020   22.3830 N.3   140  PRO140     -0.2116
     97  CA       102.5370  -33.9830   21.9060 C.3   140  PRO140      0.1372
     98  C        103.5670  -33.0690   21.2020 C.2   140  PRO140      0.2244
     99  O        104.6060  -33.5620   20.9090 O.2   140  PRO140     -0.2868
    100  CB       102.1310  -35.1700   21.0240 C.3   140  PRO140      0.0268
    101  CG       100.9180  -34.6880   20.3360 C.3   140  PRO140      0.0207
    102  CD       100.1720  -33.9730   21.4890 C.3   140  PRO140      0.0892
    103  N         95.3940  -36.8570   25.9630 N.3   208  TRP208     -0.1241
    104  CA        95.4230  -35.6030   25.2560 C.3   208  TRP208      0.1605
    105  C         94.4740  -35.4680   24.0320 C.2   208  TRP208      0.2264
    106  O         93.9550  -34.3350   23.7510 O.2   208  TRP208     -0.2867
    107  CB        96.8520  -35.3060   24.9010 C.3   208  TRP208      0.0550
    108  CG        97.2290  -35.7770   23.4380 C.ar  208  TRP208      0.0003
    109  CD1       97.8290  -36.8950   23.0570 C.ar  208  TRP208      0.0946
    110  CD2       96.9680  -35.0350   22.2490 C.ar  208  TRP208      0.0152
    111  NE1       98.0190  -36.9310   21.6680 N.ar  208  TRP208     -0.2442
    112  CE2       97.4100  -35.8210   21.1450 C.ar  208  TRP208      0.0810
    113  CE3       96.4400  -33.7500   22.0080 C.ar  208  TRP208      0.0012
    114  CZ2       97.3570  -35.3470   19.8320 C.ar  208  TRP208      0.0191
    115  CZ3       96.3030  -33.2970   20.6510 C.ar  208  TRP208      0.0001
    116  CH2       96.7810  -34.0910   19.6090 C.ar  208  TRP208      0.0015
@<TRIPOS>BOND
     1    64    63   ar
     2    57    56   ar
     3    57    55   ar
     4    73    71   ar
     5    56    54   ar
     6    63    62    1
     7    63    65   ar
     8    62    59    1
     9    55    53   ar
    10    70    71    1
    11    70    67    1
    12    71    72   ar
    13    54    53   ar
    14    53    52    1
    15    58    59    1
    16    58    50   am
    17    59    60    1
    18    66    67    1
    19    66    60   am
    20    69    68    2
    21    67    68    1
    22    60    61    2
    23    68    74   am
    24    49    52    1
    25    49    50    1
    26    49    48    1
    27    50    51    2
    28    91    90    2
    29    42    41    2
    30    90    89    1
    31    41    48   am
    32    41    40    1
    33    74    75    1
    34    86    87   ar
    35    86    84   ar
    36    77    76    2
    37    89    88    1
    38    89    92    1
    39    88    76   am
    40    76    75    1
    41    75    78    1
    42    87    85   ar
    43    84    81   ar
    44    92    93    1
    45    43    40    1
    46    43    44    1
    47    40    39    1
    48    39    33   am
    49    85    83   ar
    50    81    83   ar
    51    81    79   ar
    52    37    36    1
    53    83    82   ar
    54    44    45    1
    55    78    79    1
    56    79    80   ar
    57    93    95   am
    58    93    94    2
    59    46    45    1
    60    46    47    1
    61    36    38    1
    62    36    35    1
    63    82    80   ar
    64    33    32    1
    65    33    34    2
    66    32    35    1
    67    32    31    1
    68   116   114   ar
    69   116   115   ar
    70   114   112   ar
    71    28    27    2
    72   101   100    1
    73   101   102    1
    74   115   113   ar
    75    99    98    2
    76   100    97    1
    77   112   111   ar
    78   112   110   ar
    79    98    97    1
    80    27    26    1
    81   102    96    1
    82   111   109   ar
    83    30    29    1
    84    97    96    1
    85     4     3    2
    86     6     5    1
    87    17    16    2
    88   113   110   ar
    89     5     7    1
    90     5     2    1
    91   110   108   ar
    92    29    26    1
    93    26    25    1
    94     3     2    1
    95   109   108   ar
    96    16    15    1
    97     2     1    1
    98    20    22   ar
    99    20    19   ar
   100   108   107    1
   101    11    10    2
   102    22    24   ar
   103   106   105    2
   104    15    18    1
   105    15    14    1
   106   105   104    1
   107    18    19    1
   108    13    12    1
   109    19    21   ar
   110    10    14   am
   111    10     9    1
   112   107   104    1
   113    24    23   ar
   114   104   103    1
   115     9    12    1
   116     9     8    1
   117    21    23   ar
