@<TRIPOS>MOLECULE
tmp/2rdeA00.pdb
 158 150 0 0 0
SMALL
GASTEIGER

@<TRIPOS>ATOM
      1  N         14.5220   -9.3300    2.2920 N.3    71  ARG71      -0.1245
      2  CA        13.6490   -9.5720    1.1550 C.3    71  ARG71       0.1563
      3  C         12.2520   -9.0870    1.5070 C.2    71  ARG71       0.2260
      4  O         11.7170   -9.4270    2.5580 O.2    71  ARG71      -0.2867
      5  CB        13.5790  -11.0650    0.8210 C.3    71  ARG71       0.0307
      6  CG        12.8980  -11.3350   -0.5110 C.3    71  ARG71       0.0489
      7  CD        12.5520  -12.8020   -0.7180 C.3    71  ARG71       0.2205
      8  NE        11.4350  -13.2200    0.1230 N.pl3  71  ARG71      -0.0865
      9  CZ        10.7040  -14.3090   -0.0940 C.cat  71  ARG71       0.5346
     10  NH1       10.9730  -15.0950   -1.1290 N.pl3  71  ARG71       0.1354
     11  NH2        9.6970  -14.6060    0.7180 N.pl3  71  ARG71       0.1354
     12  N          8.2110   -7.9960   -0.3260 N.3    73  ILE73      -0.1245
     13  CA         7.3650   -8.2880   -1.4710 C.3    73  ILE73       0.1561
     14  C          6.3250   -7.2060   -1.7510 C.2    73  ILE73       0.2260
     15  O          5.7190   -6.6620   -0.8310 O.2    73  ILE73      -0.2867
     16  CB         6.6190   -9.6320   -1.2600 C.3    73  ILE73       0.0252
     17  CG1        7.6300  -10.7690   -1.1250 C.3    73  ILE73       0.0019
     18  CG2        5.6790   -9.9090   -2.4170 C.3    73  ILE73       0.0019
     19  CD1        7.0070  -12.0970   -0.7820 C.3    73  ILE73       0.0001
     20  N          2.9440   -7.0070   -3.5080 N.3    75  PRO75      -0.2116
     21  CA         1.8070   -7.8270   -3.9400 C.3    75  PRO75       0.1372
     22  C          0.9570   -7.4500   -5.1470 C.2    75  PRO75       0.2244
     23  O          0.4350   -8.3320   -5.8200 O.2    75  PRO75      -0.2868
     24  CB         0.9660   -7.9090   -2.6710 C.3    75  PRO75       0.0268
     25  CG         1.1390   -6.5260   -2.1100 C.3    75  PRO75       0.0207
     26  CD         2.6370   -6.3240   -2.2370 C.3    75  PRO75       0.0892
     27  N          7.9070  -10.6490  -10.1090 N.3   112  LEU112     -0.1231
     28  CA         7.5090  -11.8060   -9.3190 C.3   112  LEU112      0.1693
     29  C          6.5980  -12.8030  -10.0410 C.2   112  LEU112      0.2592
     30  O          6.6460  -14.0020   -9.7640 O.2   112  LEU112     -0.2718
     31  CB         6.8010  -11.3100   -8.0580 C.3   112  LEU112      0.0284
     32  CG         6.2850  -12.3220   -7.0390 C.3   112  LEU112      0.0019
     33  CD1        7.4540  -13.0310   -6.3690 C.3   112  LEU112      0.0001
     34  CD2        5.4470  -11.5950   -6.0020 C.3   112  LEU112      0.0001
     35  N          5.7790  -12.3110  -10.9670 N.am  113  ARG113     -0.1966
     36  CA         4.8280  -13.1680  -11.6700 C.3   113  ARG113      0.1729
     37  C          4.8530  -13.0370  -13.1870 C.2   113  ARG113      0.2616
     38  O          5.2950  -12.0260  -13.7280 O.2   113  ARG113     -0.2715
     39  CB         3.4180  -12.8610  -11.1620 C.3   113  ARG113      0.0348
     40  CG         3.2870  -12.9720   -9.6490 C.3   113  ARG113      0.0492
     41  CD         2.1070  -12.1670   -9.1250 C.3   113  ARG113      0.2205
     42  NE         2.0780  -12.1520   -7.6650 N.pl3 113  ARG113     -0.0865
     43  CZ         1.4100  -11.2560   -6.9440 C.cat 113  ARG113      0.5346
     44  NH1        1.4340  -11.3190   -5.6170 N.pl3 113  ARG113      0.1354
     45  NH2        0.7320  -10.2860   -7.5470 N.pl3 113  ARG113      0.1354
     46  N          4.3430  -14.0570  -13.8720 N.am  114  LYS114     -0.1963
     47  CA         4.3200  -14.0510  -15.3270 C.3   114  LYS114      0.1728
     48  C          3.2650  -13.0880  -15.8480 C.2   114  LYS114      0.2616
     49  O          3.3920  -12.5570  -16.9450 O.2   114  LYS114     -0.2715
     50  CB         4.0400  -15.4620  -15.8610 C.3   114  LYS114      0.0311
     51  CG         2.6520  -15.9990  -15.5170 C.3   114  LYS114      0.0038
     52  CD         2.4150  -17.3710  -16.1360 C.3   114  LYS114      0.0206
     53  CE         1.0100  -17.8680  -15.8410 C.3   114  LYS114      0.1093
     54  NZ         0.7160  -19.1670  -16.5060 N.3   114  LYS114     -0.1314
     55  N          2.2270  -12.8570  -15.0530 N.am  115  GLU115     -0.1977
     56  CA         1.1440  -11.9620  -15.4450 C.3   115  GLU115      0.1602
     57  C          0.5390  -11.3130  -14.2080 C.2   115  GLU115      0.2287
     58  O          0.7160  -11.7890  -13.0970 O.2   115  GLU115     -0.2864
     59  CB         0.0710  -12.7460  -16.1980 C.3   115  GLU115      0.0415
     60  CG        -0.5110  -13.8900  -15.3960 C.3   115  GLU115      0.1163
     61  CD        -1.4100  -14.7840  -16.2180 C.2   115  GLU115      0.3649
     62  OE1       -1.4070  -14.6530  -17.4600 O.co2 115  GLU115     -0.2457
     63  OE2       -2.1110  -15.6280  -15.6240 O.co2 115  GLU115     -0.2457
     64  N         -2.1550  -10.0040  -11.2910 N.3   117  ARG117     -0.1245
     65  CA        -3.2720  -10.5350  -10.5370 C.3   117  ARG117      0.1563
     66  C         -4.1000   -9.2930  -10.2450 C.2   117  ARG117      0.2260
     67  O         -3.5650   -8.2680   -9.8170 O.2   117  ARG117     -0.2867
     68  CB        -2.7900  -11.1950   -9.2370 C.3   117  ARG117      0.0307
     69  CG        -1.8720  -12.3850   -9.4860 C.3   117  ARG117      0.0489
     70  CD        -1.4990  -13.1340   -8.2120 C.3   117  ARG117      0.2205
     71  NE        -0.6290  -14.2670   -8.5230 N.pl3 117  ARG117     -0.0865
     72  CZ        -0.0280  -15.0270   -7.6140 C.cat 117  ARG117      0.5346
     73  NH1       -0.1980  -14.7820   -6.3210 N.pl3 117  ARG117      0.1354
     74  NH2        0.7570  -16.0270   -8.0010 N.pl3 117  ARG117      0.1354
     75  N         -8.4270  -12.3130   -5.6160 N.3   139  ASP139     -0.1225
     76  CA        -7.7350  -11.8500   -6.8060 C.3   139  ASP139      0.1805
     77  C         -7.8980  -12.8700   -7.9110 C.2   139  ASP139      0.2598
     78  O         -8.1930  -14.0410   -7.6610 O.2   139  ASP139     -0.2718
     79  CB        -6.2620  -11.4240   -6.5420 C.3   139  ASP139      0.1424
     80  CG        -5.2900  -12.5800   -6.3580 C.2   139  ASP139      0.3668
     81  OD1       -4.4370  -12.4550   -5.4500 O.co2 139  ASP139     -0.2456
     82  OD2       -5.3320  -13.5720   -7.1140 O.co2 139  ASP139     -0.2456
     83  N         -7.7600  -12.4040   -9.1430 N.am  140  LEU140     -0.1966
     84  CA        -7.9640  -13.2490  -10.3010 C.3   140  LEU140      0.1728
     85  C         -6.9770  -12.9090  -11.4060 C.2   140  LEU140      0.2616
     86  O         -6.6930  -11.7420  -11.6580 O.2   140  LEU140     -0.2715
     87  CB        -9.3940  -13.0340  -10.7990 C.3   140  LEU140      0.0311
     88  CG        -9.9000  -13.7560  -12.0450 C.3   140  LEU140      0.0022
     89  CD1       -9.9560  -15.2510  -11.7700 C.3   140  LEU140      0.0001
     90  CD2      -11.2910  -13.2350  -12.4000 C.3   140  LEU140      0.0001
     91  N         -6.4420  -13.9340  -12.0550 N.am  141  SER141     -0.1950
     92  CA        -5.5230  -13.7140  -13.1630 C.3   141  SER141      0.1924
     93  C         -6.0390  -14.5890  -14.3050 C.2   141  SER141      0.2314
     94  O         -7.0420  -15.2810  -14.1490 O.2   141  SER141     -0.2863
     95  CB        -4.0960  -14.1120  -12.7780 C.3   141  SER141      0.2116
     96  OG        -3.9950  -15.4930  -12.4890 O.3   141  SER141     -0.2180
     97  N         -4.5160  -17.0990  -15.4610 N.3   143  SER143     -0.1202
     98  CA        -4.1170  -18.4650  -15.1360 C.3   143  SER143      0.2020
     99  C         -4.4830  -18.9720  -13.7530 C.2   143  SER143      0.2619
    100  O         -4.3070  -20.1580  -13.4820 O.2   143  SER143     -0.2717
    101  CB        -2.6030  -18.6290  -15.3100 C.3   143  SER143      0.2103
    102  OG        -2.1950  -18.2900  -16.6170 O.3   143  SER143     -0.2182
    103  N         -4.9780  -18.1080  -12.8730 N.am  144  GLY144     -0.1942
    104  CA        -5.3110  -18.5850  -11.5420 C.3   144  GLY144      0.2014
    105  C         -6.0400  -17.5780  -10.6790 C.2   144  GLY144      0.2639
    106  O         -6.5370  -16.5700  -11.1730 O.2   144  GLY144     -0.2714
    107  N         -6.1160  -17.8560   -9.3810 N.am  145  CYS145     -0.1953
    108  CA        -6.8080  -16.9470   -8.4880 C.3   145  CYS145      0.1843
    109  C         -6.4950  -17.2170   -7.0260 C.2   145  CYS145      0.2625
    110  O         -5.8350  -18.1970   -6.6640 O.2   145  CYS145     -0.2714
    111  CB        -8.3280  -17.0550   -8.6900 C.3   145  CYS145      0.0997
    112  SG        -9.1220  -18.5930   -8.0000 S.3   145  CYS145     -0.0797
    113  N         -6.9750  -16.3170   -6.1850 N.am  146  ARG146     -0.1977
    114  CA        -6.8090  -16.4440   -4.7540 C.3   146  ARG146      0.1597
    115  C         -8.1940  -16.3470   -4.1320 C.2   146  ARG146      0.2287
    116  O         -8.9770  -15.4790   -4.4980 O.2   146  ARG146     -0.2864
    117  CB        -5.9250  -15.3210   -4.2110 C.3   146  ARG146      0.0334
    118  CG        -5.9890  -15.1860   -2.6990 C.3   146  ARG146      0.0492
    119  CD        -4.9870  -14.1730   -2.1640 C.3   146  ARG146      0.2205
    120  NE        -3.6200  -14.6800   -2.2470 N.pl3 146  ARG146     -0.0865
    121  CZ        -2.5770  -14.1290   -1.6330 C.cat 146  ARG146      0.5346
    122  NH1       -2.7430  -13.0490   -0.8820 N.pl3 146  ARG146      0.1354
    123  NH2       -1.3650  -14.6540   -1.7730 N.pl3 146  ARG146      0.1354
    124  N         -2.2290  -24.4320   -5.1760 N.3   184  CYS184     -0.1221
    125  CA        -0.7760  -24.3390   -5.3350 C.3   184  CYS184      0.1808
    126  C         -0.1050  -23.8620   -4.0640 C.2   184  CYS184      0.2601
    127  O          1.0600  -24.1560   -3.8130 O.2   184  CYS184     -0.2717
    128  CB        -0.4130  -23.3710   -6.4630 C.3   184  CYS184      0.0970
    129  SG        -0.8070  -23.9640   -8.1060 S.3   184  CYS184     -0.0800
    130  N         -0.8390  -23.1000   -3.2690 N.am  185  ASN185     -0.1974
    131  CA        -0.2960  -22.5900   -2.0270 C.3   185  ASN185      0.1688
    132  C         -1.4420  -22.3070   -1.0740 C.2   185  ASN185      0.2292
    133  O         -2.6070  -22.2540   -1.4830 O.2   185  ASN185     -0.2864
    134  CB         0.5410  -21.3240   -2.2940 C.3   185  ASN185      0.1181
    135  CG        -0.2280  -20.2560   -3.0560 C.2   185  ASN185      0.2629
    136  OD1       -1.1860  -19.6840   -2.5410 O.2   185  ASN185     -0.2716
    137  ND2        0.1900  -19.9860   -4.2910 N.am  185  ASN185     -0.0877
    138  N         -4.1240  -20.3660   -2.9710 N.3   196  GLY196     -0.1210
    139  CA        -3.7150  -19.9010   -4.2820 C.3   196  GLY196      0.1956
    140  C         -4.1060  -21.0400   -5.2000 C.2   196  GLY196      0.2612
    141  O         -3.9170  -22.2030   -4.8470 O.2   196  GLY196     -0.2717
    142  N         -4.6390  -20.7230   -6.3720 N.am  197  LEU197     -0.1965
    143  CA        -5.0930  -21.7550   -7.2890 C.3   197  LEU197      0.1728
    144  C         -4.5990  -21.5300   -8.7100 C.2   197  LEU197      0.2616
    145  O         -4.5000  -20.3930   -9.1630 O.2   197  LEU197     -0.2715
    146  CB        -6.6250  -21.7600   -7.2820 C.3   197  LEU197      0.0311
    147  CG        -7.4220  -22.8890   -7.9290 C.3   197  LEU197      0.0022
    148  CD1       -7.2620  -24.1640   -7.1150 C.3   197  LEU197      0.0001
    149  CD2       -8.8890  -22.4880   -7.9860 C.3   197  LEU197      0.0001
    150  N         -4.2810  -22.6170   -9.4050 N.am  198  GLU198     -0.1977
    151  CA        -3.8530  -22.5410  -10.7980 C.3   198  GLU198      0.1602
    152  C         -4.9160  -23.2940  -11.5960 C.2   198  GLU198      0.2287
    153  O         -5.1350  -24.4870  -11.3720 O.2   198  GLU198     -0.2864
    154  CB        -2.4770  -23.1840  -10.9820 C.3   198  GLU198      0.0415
    155  CG        -2.0500  -23.2820  -12.4350 C.3   198  GLU198      0.1163
    156  CD        -0.6020  -23.7190  -12.5990 C.2   198  GLU198      0.3649
    157  OE1        0.2680  -22.8420  -12.7760 O.co2 198  GLU198     -0.2457
    158  OE2       -0.3310  -24.9370  -12.5420 O.co2 198  GLU198     -0.2457
@<TRIPOS>BOND
     1    62    61   ar
     2    49    48    2
     3   102   101    1
     4    54    53    1
     5    61    63   ar
     6    61    60    1
     7    59    56    1
     8    59    60    1
     9    52    53    1
    10    52    51    1
    11    50    51    1
    12    50    47    1
    13    48    47    1
    14    48    55   am
    15    97    98    1
    16    56    55    1
    17    56    57    1
    18    47    46    1
    19   101    98    1
    20    98    99    1
    21    93    94    2
    22    93    92    1
    23    57    58    2
    24    46    37   am
    25    99   100    2
    26    99   103   am
    27    38    37    2
    28    37    36    1
    29    92    95    1
    30    92    91    1
    31   103   104    1
    32    95    96    1
    33   157   156   ar
    34   156   158   ar
    35   156   155    1
    36   155   154    1
    37    90    88    1
    38    91    85   am
    39    88    89    1
    40    88    87    1
    41    36    39    1
    42    36    35    1
    43    86    85    2
    44   152   153    2
    45   152   151    1
    46   104   105    1
    47    85    84    1
    48    64    65    1
    49   106   105    2
    50    39    40    1
    51   154   151    1
    52    35    29   am
    53    87    84    1
    54   151   150    1
    55   105   107   am
    56    65    66    1
    57    65    68    1
    58    84    83    1
    59    66    67    2
    60    27    28    1
    61    29    30    2
    62    29    28    1
    63    40    41    1
    64    69    68    1
    65    69    70    1
    66   150   144   am
    67   107   108    1
    68    28    31    1
    69   145   144    2
    70    83    77   am
    71    41    42    1
    72   144   143    1
    73   111   108    1
    74   111   112    1
    75    71    70    1
    76    71    72    2
    77   108   109    1
    78   129   128    1
    79    31    32    1
    80    74    72    1
    81   149   147    1
    82   147   146    1
    83   147   148    1
    84    77    78    2
    85    77    76    1
    86    42    43    2
    87    72    73    1
    88    45    43    1
    89   143   146    1
    90   143   142    1
    91    82    80   ar
    92    32    33    1
    93    32    34    1
    94   109   110    2
    95   109   113   am
    96    43    44    1
    97    76    79    1
    98    76    75    1
    99    79    80    1
   100   128   125    1
   101   142   140   am
   102    80    81   ar
   103   113   114    1
   104    23    22    2
   105   125   124    1
   106   125   126    1
   107   140   141    2
   108   140   139    1
   109    22    21    1
   110   114   117    1
   111   114   115    1
   112   116   115    2
   113   137   135   am
   114   139   138    1
   115   117   118    1
   116   126   127    2
   117   126   130   am
   118    21    20    1
   119    21    24    1
   120    20    26    1
   121   130   131    1
   122   135   136    2
   123   135   134    1
   124   118   119    1
   125    24    25    1
   126    18    16    1
   127   134   131    1
   128   120   119    1
   129   120   121    2
   130    26    25    1
   131   131   132    1
   132   123   121    1
   133    14    13    1
   134    14    15    2
   135   121   122    1
   136   133   132    2
   137    13    16    1
   138    13    12    1
   139    16    17    1
   140    10     9    1
   141    17    19    1
   142     7     6    1
   143     7     8    1
   144     6     5    1
   145     9     8    2
   146     9    11    1
   147     5     2    1
   148     2     3    1
   149     2     1    1
   150     3     4    2
