@<TRIPOS>MOLECULE
tmp/2rdgA00.pdb
 113 108 0 0 0
SMALL
GASTEIGER

@<TRIPOS>ATOM
      1  N         22.8230    1.7620   16.2860 N.3   126  LEU126     -0.1245
      2  CA        22.4460    1.2580   14.9640 C.3   126  LEU126      0.1561
      3  C         22.7930   -0.2320   14.8580 C.2   126  LEU126      0.2260
      4  O         22.0870   -0.9800   14.1810 O.2   126  LEU126     -0.2867
      5  CB        23.1380    2.0520   13.8540 C.3   126  LEU126      0.0270
      6  CG        22.8140    3.5510   13.8140 C.3   126  LEU126      0.0019
      7  CD1       23.4260    4.1600   12.5530 C.3   126  LEU126      0.0001
      8  CD2       21.3200    3.8340   13.8430 C.3   126  LEU126      0.0001
      9  N         14.6910    1.4640    6.6600 N.3   154  ARG154     -0.1245
     10  CA        14.9040    2.8720    6.9880 C.3   154  ARG154      0.1563
     11  C         14.2160    3.2340    8.2970 C.2   154  ARG154      0.2260
     12  O         13.0010    3.0330    8.4560 O.2   154  ARG154     -0.2867
     13  CB        14.4420    3.7970    5.8540 C.3   154  ARG154      0.0307
     14  CG        14.6960    5.2720    6.1550 C.3   154  ARG154      0.0489
     15  CD        14.7470    6.1010    4.8880 C.3   154  ARG154      0.2205
     16  NE        15.9480    5.8100    4.0960 N.pl3 154  ARG154     -0.0865
     17  CZ        16.1320    6.2600    2.8570 C.cat 154  ARG154      0.5346
     18  NH1       15.2050    7.0210    2.2730 N.pl3 154  ARG154      0.1354
     19  NH2       17.2470    5.9530    2.1990 N.pl3 154  ARG154      0.1354
     20  N         15.1370   13.2390   10.2060 N.3   161  ASP161     -0.1225
     21  CA        16.4090   12.5410    9.9410 C.3   161  ASP161      0.1805
     22  C         16.1120   11.0780    9.7070 C.2   161  ASP161      0.2598
     23  O         15.1130   10.5540   10.2190 O.2   161  ASP161     -0.2718
     24  CB        17.3530   12.6110   11.1390 C.3   161  ASP161      0.1424
     25  CG        17.9660   13.9920   11.3580 C.2   161  ASP161      0.3668
     26  OD1       17.8280   14.9050   10.5060 O.co2 161  ASP161     -0.2456
     27  OD2       18.6230   14.1240   12.4180 O.co2 161  ASP161     -0.2456
     28  N         16.9790   10.3880    8.9750 N.am  162  PHE162     -0.1962
     29  CA        16.8160    8.9420    8.8980 C.3   162  PHE162      0.1771
     30  C         18.1400    8.1900    8.8190 C.2   162  PHE162      0.2620
     31  O         19.2050    8.7900    8.5950 O.2   162  PHE162     -0.2715
     32  CB        15.8600    8.5350    7.7630 C.3   162  PHE162      0.0574
     33  CG        16.2800    9.0030    6.4000 C.ar  162  PHE162     -0.0200
     34  CD1       17.3530    8.4030    5.7330 C.ar  162  PHE162     -0.0042
     35  CD2       15.5810   10.0360    5.7670 C.ar  162  PHE162     -0.0042
     36  CE1       17.7160    8.8150    4.4520 C.ar  162  PHE162     -0.0003
     37  CE2       15.9470   10.4580    4.4830 C.ar  162  PHE162     -0.0003
     38  CZ        17.0180    9.8470    3.8340 C.ar  162  PHE162     -0.0000
     39  N         18.0390    6.8800    9.0270 N.am  163  TYR163     -0.1960
     40  CA        19.1600    5.9400    9.0140 C.3   163  TYR163      0.1771
     41  C         18.7560    4.7280    8.2060 C.2   163  TYR163      0.2620
     42  O         17.6870    4.1470    8.4230 O.2   163  TYR163     -0.2715
     43  CB        19.5070    5.5170   10.4430 C.3   163  TYR163      0.0574
     44  CG        19.8030    6.7230   11.2960 C.ar  163  TYR163     -0.0198
     45  CD1       18.7890    7.3480   12.0310 C.ar  163  TYR163     -0.0009
     46  CD2       21.0900    7.2870   11.3100 C.ar  163  TYR163     -0.0009
     47  CE1       19.0500    8.4830   12.7970 C.ar  163  TYR163      0.0417
     48  CE2       21.3600    8.4180   12.0710 C.ar  163  TYR163      0.0417
     49  CZ        20.3340    9.0160   12.8040 C.ar  163  TYR163      0.1957
     50  OH        20.6190   10.1420   13.5450 O.3   163  TYR163     -0.2866
     51  N         19.6230    4.3470    7.2720 N.am  164  THR164     -0.1951
     52  CA        19.3030    3.2890    6.3270 C.3   164  THR164      0.1897
     53  C         20.2440    2.1040    6.4810 C.2   164  THR164      0.2313
     54  O         21.4760    2.2790    6.5750 O.2   164  THR164     -0.2863
     55  CB        19.4280    3.8000    4.8660 C.3   164  THR164      0.1794
     56  OG1       18.6290    4.9780    4.6860 O.3   164  THR164     -0.2208
     57  CG2       18.9660    2.7320    3.8770 C.3   164  THR164      0.0378
     58  N         21.1260   -0.9940    4.2220 N.3   166  GLU166     -0.1245
     59  CA        20.9680   -1.6770    2.9400 C.3   166  GLU166      0.1567
     60  C         21.1390   -3.1690    3.1940 C.2   166  GLU166      0.2260
     61  O         22.1590   -3.6070    3.7600 O.2   166  GLU166     -0.2867
     62  CB        22.0030   -1.1530    1.9430 C.3   166  GLU166      0.0388
     63  CG        21.7230    0.2730    1.5390 C.3   166  GLU166      0.1160
     64  CD        22.7750    0.8870    0.6450 C.2   166  GLU166      0.3649
     65  OE1       23.9630    0.5100    0.7560 O.co2 166  GLU166     -0.2457
     66  OE2       22.3990    1.7850   -0.1570 O.co2 166  GLU166     -0.2457
     67  N         24.1980   -5.8550    2.1170 N.3   169  LYS169     -0.1245
     68  CA        25.5280   -5.7860    2.7250 C.3   169  LYS169      0.1561
     69  C         25.3830   -5.7490    4.2530 C.2   169  LYS169      0.2260
     70  O         24.3290   -5.3630    4.7910 O.2   169  LYS169     -0.2867
     71  CB        26.2970   -4.5470    2.2070 C.3   169  LYS169      0.0271
     72  CG        25.5380   -3.2250    2.3760 C.3   169  LYS169      0.0035
     73  CD        26.3660   -2.0160    1.8920 C.3   169  LYS169      0.0206
     74  CE        26.4910   -1.9430    0.3600 C.3   169  LYS169      0.1093
     75  NZ        25.2120   -1.8350   -0.4190 N.3   169  LYS169     -0.1314
     76  N         27.9540   -1.3540    7.9200 N.3   172  GLN172     -0.1245
     77  CA        29.3810   -1.0040    7.8940 C.3   172  GLN172      0.1566
     78  C         29.9260   -0.9190    9.3220 C.2   172  GLN172      0.2260
     79  O         29.2710   -0.3850   10.2270 O.2   172  GLN172     -0.2867
     80  CB        29.6030    0.3190    7.1650 C.3   172  GLN172      0.0367
     81  CG        29.2440    0.3080    5.6840 C.3   172  GLN172      0.0905
     82  CD        27.8290    0.8130    5.4180 C.2   172  GLN172      0.2608
     83  OE1       26.9340    0.6970    6.2640 O.2   172  GLN172     -0.2717
     84  NE2       27.6280    1.3810    4.2260 N.am  172  GLN172     -0.0878
     85  N         32.0850    0.9140   10.7810 N.3   174  HIS174     -0.1226
     86  CA        32.2450    2.2560   11.3550 C.3   174  HIS174      0.1752
     87  C         30.9300    2.8960   11.7900 C.2   174  HIS174      0.2595
     88  O         30.9420    3.9570   12.4140 O.2   174  HIS174     -0.2718
     89  CB        32.9850    3.1780   10.3880 C.3   174  HIS174      0.0759
     90  CG        32.2400    3.4400    9.1190 C.ar  174  HIS174      0.0818
     91  ND1       32.3720    2.6370    8.0070 N.ar  174  HIS174     -0.2268
     92  CD2       31.3480    4.4070    8.7890 C.ar  174  HIS174      0.1154
     93  CE1       31.6050    3.1100    7.0350 C.ar  174  HIS174      0.1986
     94  NE2       30.9660    4.1760    7.4860 N.ar  174  HIS174     -0.2212
     95  N         29.8110    2.2360   11.4730 N.am  175  ARG175     -0.1980
     96  CA        28.4790    2.7200   11.8620 C.3   175  ARG175      0.1597
     97  C         27.9240    1.9760   13.0740 C.2   175  ARG175      0.2287
     98  O         26.8830    2.3480   13.6120 O.2   175  ARG175     -0.2864
     99  CB        27.4960    2.5860   10.6930 C.3   175  ARG175      0.0334
    100  CG        27.8380    3.4820    9.5070 C.3   175  ARG175      0.0492
    101  CD        26.8720    3.2360    8.3420 C.3   175  ARG175      0.2205
    102  NE        25.4960    3.6180    8.6700 N.pl3 175  ARG175     -0.0865
    103  CZ        24.4110    3.0920    8.0920 C.cat 175  ARG175      0.5346
    104  NH1       24.5140    2.1360    7.1730 N.pl3 175  ARG175      0.1354
    105  NH2       23.2090    3.5220    8.4560 N.pl3 175  ARG175      0.1354
    106  N         27.4280    3.9770   16.2310 N.3   178  ASP178     -0.1239
    107  CA        26.5540    5.1540   16.1320 C.3   178  ASP178      0.1674
    108  C         25.3010    4.9260   16.9620 C.2   178  ASP178      0.2266
    109  O         24.7470    3.8230   16.9750 O.2   178  ASP178     -0.2867
    110  CB        26.1640    5.4180   14.6810 C.3   178  ASP178      0.1410
    111  CG        27.3370    5.9120   13.8360 C.2   178  ASP178      0.3668
    112  OD1       28.4020    6.2410   14.3970 O.co2 178  ASP178     -0.2456
    113  OD2       27.1870    5.9660   12.6060 O.co2 178  ASP178     -0.2456
@<TRIPOS>BOND
     1    75    74    1
     2    66    64   ar
     3    74    73    1
     4    64    65   ar
     5    64    63    1
     6    63    62    1
     7    73    72    1
     8    62    59    1
     9    67    68    1
    10    19    17    1
    11    71    72    1
    12    71    68    1
    13    18    17    1
    14    68    69    1
    15    17    16    2
    16    59    60    1
    17    59    58    1
    18    60    61    2
    19    38    36   ar
    20    38    37   ar
    21    57    55    1
    22    16    15    1
    23    84    82   am
    24    69    70    2
    25    36    34   ar
    26    37    35   ar
    27    56    55    1
    28    55    52    1
    29    15    14    1
    30    82    81    1
    31    82    83    2
    32    81    80    1
    33    34    33   ar
    34    35    33   ar
    35    13    14    1
    36    13    10    1
    37    52    53    1
    38    52    51    1
    39    33    32    1
    40    53    54    2
    41     9    10    1
    42    10    11    1
    43    93    94   ar
    44    93    91   ar
    45    80    77    1
    46   104   103    1
    47    51    41   am
    48    94    92   ar
    49    32    29    1
    50    77    76    1
    51    77    78    1
    52    91    90   ar
    53   103   105    1
    54   103   102    2
    55    41    42    2
    56    41    40    1
    57    11    12    2
    58   101   102    1
    59   101   100    1
    60    31    30    2
    61    92    90   ar
    62    30    29    1
    63    30    39   am
    64    29    28    1
    65    28    22   am
    66    40    39    1
    67    40    43    1
    68    90    89    1
    69    78    79    2
    70   100    99    1
    71    22    21    1
    72    22    23    2
    73    21    20    1
    74    21    24    1
    75    89    86    1
    76    43    44    1
    77    26    25   ar
    78    99    96    1
    79    85    86    1
    80    24    25    1
    81    44    46   ar
    82    44    45   ar
    83    46    48   ar
    84    86    87    1
    85    25    27   ar
    86    95    87   am
    87    95    96    1
    88    87    88    2
    89    96    97    1
    90    45    47   ar
    91    48    49   ar
    92     7     6    1
    93   113   111   ar
    94    47    49   ar
    95    49    50    1
    96    97    98    2
    97     6     8    1
    98     6     5    1
    99   111   112   ar
   100   111   110    1
   101     5     2    1
   102     4     3    2
   103   110   107    1
   104     3     2    1
   105     2     1    1
   106   107   106    1
   107   107   108    1
   108   108   109    2
