@<TRIPOS>MOLECULE
tmp/2rdjE00.pdb
 145 140 0 0 0
SMALL
GASTEIGER

@<TRIPOS>ATOM
      1  N         -7.5410   -9.5130  -16.7990 N.3     7  ASP7       -0.1225
      2  CA        -6.1050   -9.7260  -17.0660 C.3     7  ASP7        0.1805
      3  C         -5.5790   -8.4790  -17.7920 C.2     7  ASP7        0.2597
      4  O         -6.0140   -8.1840  -18.9200 O.2     7  ASP7       -0.2718
      5  CB        -5.9130  -10.9970  -17.9260 C.3     7  ASP7        0.1424
      6  CG        -4.4430  -11.4200  -18.0790 C.2     7  ASP7        0.3668
      7  OD1       -3.5150  -10.6090  -17.8870 O.co2   7  ASP7       -0.2456
      8  OD2       -4.1900  -12.5930  -18.4020 O.co2   7  ASP7       -0.2456
      9  N         -4.6800   -7.7270  -17.1550 N.am    8  PHE8       -0.1976
     10  CA        -4.1840   -6.4830  -17.7630 C.3     8  PHE8        0.1639
     11  C         -3.3090   -6.8380  -18.9610 C.2     8  PHE8        0.2290
     12  O         -2.5100   -7.7630  -18.8760 O.2     8  PHE8       -0.2864
     13  CB        -3.3990   -5.6090  -16.7720 C.3     8  PHE8        0.0560
     14  CG        -4.0630   -5.4140  -15.4260 C.ar    8  PHE8       -0.0200
     15  CD1       -5.4270   -5.5510  -15.2590 C.ar    8  PHE8       -0.0042
     16  CD2       -3.2960   -5.0770  -14.3060 C.ar    8  PHE8       -0.0042
     17  CE1       -6.0110   -5.3910  -13.9920 C.ar    8  PHE8       -0.0003
     18  CE2       -3.8850   -4.8940  -13.0360 C.ar    8  PHE8       -0.0003
     19  CZ        -5.2480   -5.0600  -12.9000 C.ar    8  PHE8       -0.0000
     20  N         -0.4270   -7.1050  -21.7500 N.3    10  TYR10      -0.1227
     21  CA         1.0390   -6.9810  -21.7750 C.3    10  TYR10       0.1736
     22  C          1.5400   -6.0230  -20.6730 C.2    10  TYR10       0.2595
     23  O          2.2060   -5.0210  -20.9400 O.2    10  TYR10      -0.2718
     24  CB         1.5250   -6.6350  -23.2060 C.3    10  TYR10       0.0548
     25  CG         0.9690   -5.3160  -23.7650 C.ar   10  TYR10      -0.0200
     26  CD1        1.7660   -4.1630  -23.8180 C.ar   10  TYR10      -0.0009
     27  CD2       -0.3740   -5.2140  -24.2060 C.ar   10  TYR10      -0.0009
     28  CE1        1.2670   -2.9660  -24.3130 C.ar   10  TYR10       0.0417
     29  CE2       -0.8900   -3.9970  -24.6810 C.ar   10  TYR10       0.0417
     30  CZ        -0.0600   -2.8780  -24.7330 C.ar   10  TYR10       0.1957
     31  OH        -0.5430   -1.6720  -25.2370 O.3    10  TYR10      -0.2866
     32  N          1.2280   -6.3380  -19.4150 N.am   11  PHE11      -0.1962
     33  CA         1.1620   -5.2830  -18.3800 C.3    11  PHE11       0.1771
     34  C          2.3990   -4.3540  -18.2140 C.2    11  PHE11       0.2619
     35  O          2.2990   -3.1410  -18.3750 O.2    11  PHE11      -0.2715
     36  CB         0.6800   -5.8480  -17.0290 C.3    11  PHE11       0.0574
     37  CG         0.4220   -4.7830  -15.9930 C.ar   11  PHE11      -0.0200
     38  CD1       -0.4890   -3.7510  -16.2470 C.ar   11  PHE11      -0.0042
     39  CD2        1.0720   -4.8110  -14.7750 C.ar   11  PHE11      -0.0042
     40  CE1       -0.7420   -2.7690  -15.2990 C.ar   11  PHE11      -0.0003
     41  CE2        0.8480   -3.8340  -13.8440 C.ar   11  PHE11      -0.0003
     42  CZ        -0.0590   -2.7960  -14.1030 C.ar   11  PHE11      -0.0000
     43  N          3.5600   -4.9040  -17.8730 N.am   12  TYR12      -0.1974
     44  CA         4.7380   -4.0650  -17.6420 C.3    12  TYR12       0.1639
     45  C          5.0300   -3.1930  -18.8270 C.2    12  TYR12       0.2290
     46  O          5.3790   -2.0510  -18.6500 O.2    12  TYR12      -0.2864
     47  CB         5.9980   -4.8820  -17.3370 C.3    12  TYR12       0.0560
     48  CG         5.9260   -5.8670  -16.1970 C.ar   12  TYR12      -0.0198
     49  CD1        4.9180   -5.8080  -15.2300 C.ar   12  TYR12      -0.0009
     50  CD2        6.8880   -6.8660  -16.0820 C.ar   12  TYR12      -0.0009
     51  CE1        4.8750   -6.7140  -14.1930 C.ar   12  TYR12       0.0417
     52  CE2        6.8490   -7.7830  -15.0450 C.ar   12  TYR12       0.0417
     53  CZ         5.8470   -7.7050  -14.1000 C.ar   12  TYR12       0.1957
     54  OH         5.8320   -8.6150  -13.0590 O.3    12  TYR12      -0.2866
     55  N         14.9430   -8.0830  -17.4900 N.3    32  VAL32      -0.1245
     56  CA        15.6390   -8.2450  -16.2210 C.3    32  VAL32       0.1561
     57  C         17.1080   -8.4270  -16.5270 C.2    32  VAL32       0.2260
     58  O         17.5100   -9.5310  -16.8610 O.2    32  VAL32      -0.2867
     59  CB        15.1520   -9.4640  -15.4000 C.3    32  VAL32       0.0252
     60  CG1       15.8470   -9.4740  -14.0180 C.3    32  VAL32       0.0019
     61  CG2       13.6340   -9.4220  -15.1970 C.3    32  VAL32       0.0019
     62  N         14.0540  -11.5710  -20.7970 N.3    43  VAL43      -0.1231
     63  CA        12.9100  -10.7010  -21.0700 C.3    43  VAL43       0.1692
     64  C         11.8280  -11.0450  -20.0600 C.2    43  VAL43       0.2592
     65  O         11.4810  -12.2060  -19.8920 O.2    43  VAL43      -0.2718
     66  CB        12.3610  -10.8940  -22.5280 C.3    43  VAL43       0.0266
     67  CG1       11.0260  -10.1200  -22.7300 C.3    43  VAL43       0.0020
     68  CG2       13.3890  -10.4080  -23.5480 C.3    43  VAL43       0.0020
     69  N         11.3320  -10.0260  -19.3640 N.am   44  ALA44      -0.1966
     70  CA        10.2180  -10.1820  -18.4370 C.3    44  ALA44       0.1728
     71  C          8.8960  -10.1840  -19.1980 C.2    44  ALA44       0.2616
     72  O          8.0350  -11.0160  -18.9410 O.2    44  ALA44      -0.2715
     73  CB        10.2310   -9.0560  -17.3610 C.3    44  ALA44       0.0334
     74  N          8.7310   -9.2320  -20.1170 N.am   45  THR45      -0.1951
     75  CA         7.6050   -9.2550  -21.0400 C.3    45  THR45       0.1897
     76  C          7.8350   -8.2970  -22.2170 C.2    45  THR45       0.2313
     77  O          8.7170   -7.4470  -22.1960 O.2    45  THR45      -0.2863
     78  CB         6.2510   -8.8860  -20.3310 C.3    45  THR45       0.1794
     79  OG1        5.1510   -9.4150  -21.1150 O.3    45  THR45      -0.2208
     80  CG2        6.0860   -7.3920  -20.2200 C.3    45  THR45       0.0378
     81  N          2.8260   -6.4010  -27.9230 N.3    48  TYR48      -0.1241
     82  CA         2.4330   -7.2400  -29.0290 C.3    48  TYR48       0.1605
     83  C          3.1960   -6.9660  -30.3320 C.2    48  TYR48       0.2264
     84  O          3.3110   -7.8360  -31.1940 O.2    48  TYR48      -0.2867
     85  CB         0.9000   -7.2430  -29.1770 C.3    48  TYR48       0.0534
     86  CG         0.2610   -8.1060  -28.0970 C.ar   48  TYR48      -0.0201
     87  CD1       -0.0610   -7.5800  -26.8390 C.ar   48  TYR48      -0.0009
     88  CD2        0.0330   -9.4600  -28.3230 C.ar   48  TYR48      -0.0009
     89  CE1       -0.6180   -8.3660  -25.8640 C.ar   48  TYR48       0.0417
     90  CE2       -0.5430  -10.2500  -27.3510 C.ar   48  TYR48       0.0417
     91  CZ        -0.8620   -9.7060  -26.1210 C.ar   48  TYR48       0.1957
     92  OH        -1.4440  -10.5270  -25.1660 O.3    48  TYR48      -0.2866
     93  N          6.1770   -9.1390  -29.7380 N.3    51  ARG51      -0.1245
     94  CA         5.7970  -10.5660  -29.7820 C.3    51  ARG51       0.1563
     95  C          5.5030  -11.0320  -31.2000 C.2    51  ARG51       0.2260
     96  O          5.6110  -12.2200  -31.5180 O.2    51  ARG51      -0.2867
     97  CB         4.5360  -10.8400  -28.9440 C.3    51  ARG51       0.0307
     98  CG         4.7250  -10.7840  -27.4490 C.3    51  ARG51       0.0489
     99  CD         3.3820  -11.0190  -26.7510 C.3    51  ARG51       0.2205
    100  NE         3.3570  -10.2660  -25.4970 N.pl3  51  ARG51      -0.0865
    101  CZ         2.6060  -10.5600  -24.4370 C.cat  51  ARG51       0.5346
    102  NH1        1.7740  -11.6040  -24.4740 N.pl3  51  ARG51       0.1354
    103  NH2        2.7090   -9.8160  -23.3230 N.pl3  51  ARG51       0.1354
    104  N          8.2160  -12.9570  -23.2930 N.3    57  ALA57      -0.1231
    105  CA         8.6140  -13.2720  -21.9040 C.3    57  ALA57       0.1694
    106  C          9.4790  -14.5230  -21.8340 C.2    57  ALA57       0.2592
    107  O          9.1570  -15.5630  -22.4380 O.2    57  ALA57      -0.2718
    108  CB         7.3780  -13.4440  -21.0180 C.3    57  ALA57       0.0304
    109  N         10.5860  -14.4300  -21.1100 N.am   58  GLY58      -0.1957
    110  CA        11.3810  -15.6300  -20.8380 C.3    58  GLY58       0.1869
    111  C         12.5680  -15.8770  -21.7350 C.2    58  GLY58       0.2309
    112  O         13.3940  -16.7170  -21.4200 O.2    58  GLY58      -0.2863
    113  N         13.3560   -3.5220  -16.0010 N.3    76  MET76      -0.1245
    114  CA        12.1770   -3.7830  -15.2330 C.3    76  MET76       0.1570
    115  C         12.1310   -2.8190  -14.0490 C.2    76  MET76       0.2261
    116  O         13.1620   -2.5640  -13.4220 O.2    76  MET76      -0.2867
    117  CB        12.2410   -5.2200  -14.7810 C.3    76  MET76       0.0387
    118  CG        11.3780   -5.5260  -13.6250 C.3    76  MET76       0.0595
    119  SD        10.2840   -6.6590  -14.3570 S.3    76  MET76      -0.1393
    120  CE         9.4050   -7.0960  -12.8830 C.3    76  MET76       0.0692
    121  N         -0.0240   -9.7060   -9.9800 N.3   104  ILE104     -0.1231
    122  CA         0.0820   -8.2760  -10.2370 C.3   104  ILE104      0.1692
    123  C         -0.9190   -7.7720  -11.2860 C.2   104  ILE104      0.2592
    124  O         -1.2310   -6.5750  -11.3430 O.2   104  ILE104     -0.2718
    125  CB         1.5350   -7.8780  -10.6680 C.3   104  ILE104      0.0266
    126  CG1        1.6730   -6.3590  -10.6610 C.3   104  ILE104      0.0019
    127  CG2        1.9150   -8.5000  -12.0420 C.3   104  ILE104      0.0020
    128  CD1        3.0530   -5.8560  -10.3290 C.3   104  ILE104      0.0001
    129  N         -1.3960   -8.6660  -12.1360 N.am  105  ASP105     -0.1974
    130  CA        -2.2080   -8.2320  -13.2500 C.3   105  ASP105      0.1709
    131  C         -3.4200   -9.0970  -13.5320 C.2   105  ASP105      0.2293
    132  O         -3.9800   -9.0360  -14.6230 O.2   105  ASP105     -0.2864
    133  CB        -1.3600   -8.0490  -14.5140 C.3   105  ASP105      0.1436
    134  CG        -0.8720   -9.3500  -15.0880 C.2   105  ASP105      0.3671
    135  OD1       -0.5670  -10.3030  -14.3340 O.co2 105  ASP105     -0.2456
    136  OD2       -0.7570   -9.4170  -16.3250 O.co2 105  ASP105     -0.2456
    137  N         -7.7580  -11.9650  -25.4540 N.3   159  LYS159     -0.1245
    138  CA        -6.6550  -10.9990  -25.3090 C.3   159  LYS159      0.1561
    139  C         -5.8420  -10.7690  -26.5840 C.2   159  LYS159      0.2260
    140  O         -5.6500  -11.6960  -27.3680 O.2   159  LYS159     -0.2867
    141  CB        -5.7470  -11.3830  -24.1490 C.3   159  LYS159      0.0271
    142  CG        -4.9860  -12.6730  -24.2870 C.3   159  LYS159      0.0035
    143  CD        -3.8530  -12.7630  -23.2330 C.3   159  LYS159      0.0206
    144  CE        -4.3820  -12.7530  -21.7510 C.3   159  LYS159      0.1093
    145  NZ        -3.2950  -13.2540  -20.8090 N.3   159  LYS159     -0.1314
@<TRIPOS>BOND
     1    96    95    2
     2    95    94    1
     3    84    83    2
     4    83    82    1
     5    94    93    1
     6    94    97    1
     7    85    82    1
     8    85    86    1
     9    82    81    1
    10    97    98    1
    11    88    86   ar
    12    88    90   ar
    13    86    87   ar
    14    98    99    1
    15   140   139    2
    16    90    91   ar
    17    87    89   ar
    18    99   100    1
    19   139   138    1
    20    91    89   ar
    21    91    92    1
    22   100   101    2
    23   137   138    1
    24   138   141    1
    25    31    30    1
    26    30    29   ar
    27    30    28   ar
    28    29    27   ar
    29   102   101    1
    30   101   103    1
    31    28    26   ar
    32   142   141    1
    33   142   143    1
    34    27    25   ar
    35    26    25   ar
    36    25    24    1
    37    68    66    1
    38   104   105    1
    39   143   144    1
    40    24    21    1
    41    67    66    1
    42    66    63    1
    43   107   106    2
    44    76    77    2
    45    76    75    1
    46   105   106    1
    47   105   108    1
    48   106   109   am
    49    21    20    1
    50    21    22    1
    51   144   145    1
    52   111   112    2
    53   111   110    1
    54    79    78    1
    55   109   110    1
    56    63    62    1
    57    63    64    1
    58    75    78    1
    59    75    74    1
    60    23    22    2
    61    22    32   am
    62    78    80    1
    63    74    71   am
    64    64    65    2
    65    64    69   am
    66    32    33    1
    67    69    70    1
    68    71    72    2
    69    71    70    1
    70    11    12    2
    71    11    10    1
    72     4     3    2
    73    45    46    2
    74    45    44    1
    75    70    73    1
    76     8     6   ar
    77    33    34    1
    78    33    36    1
    79    35    34    2
    80    34    43   am
    81     6     5    1
    82     6     7   ar
    83     5     2    1
    84    43    44    1
    85     3     9   am
    86     3     2    1
    87    10     9    1
    88    10    13    1
    89    44    47    1
    90    55    56    1
    91    47    48    1
    92     2     1    1
    93    36    37    1
    94    58    57    2
    95    13    14    1
    96    57    56    1
    97   136   134   ar
    98    38    37   ar
    99    38    40   ar
   100    56    59    1
   101    48    50   ar
   102    48    49   ar
   103    50    52   ar
   104   113   114    1
   105    37    39   ar
   106    14    15   ar
   107    14    16   ar
   108    59    61    1
   109    59    60    1
   110    40    42   ar
   111    15    17   ar
   112   114   117    1
   113   114   115    1
   114    49    51   ar
   115   134   133    1
   116   134   135   ar
   117    52    53   ar
   118   117   118    1
   119    39    41   ar
   120   132   131    2
   121   133   130    1
   122   119   118    1
   123   119   120    1
   124    16    18   ar
   125    51    53   ar
   126    42    41   ar
   127    53    54    1
   128   115   116    2
   129    17    19   ar
   130   131   130    1
   131   130   129    1
   132    18    19   ar
   133   129   123   am
   134   127   125    1
   135   124   123    2
   136   123   122    1
   137   125   126    1
   138   125   122    1
   139   126   128    1
   140   122   121    1
