@<TRIPOS>MOLECULE
tmp/2rdlB01.pdb
 168 166 0 0 0
SMALL
GASTEIGER

@<TRIPOS>ATOM
      1  N         52.7350   50.2560   41.1150 N.3    29  ALA29      -0.1231
      2  CA        53.7620   49.2270   41.1810 C.3    29  ALA29       0.1694
      3  C         53.7450   48.3150   39.9500 C.2    29  ALA29       0.2592
      4  O         52.7140   48.1410   39.2970 O.2    29  ALA29      -0.2718
      5  CB        53.5820   48.4020   42.4580 C.3    29  ALA29       0.0304
      6  N         54.9030   47.7430   39.6430 N.am   30  CYS30      -0.1970
      7  CA        55.0780   46.8420   38.5060 C.3    30  CYS30       0.1712
      8  C         56.1570   45.8390   38.8820 C.2    30  CYS30       0.2296
      9  O         56.7850   45.9400   39.9370 O.2    30  CYS30      -0.2864
     10  CB        55.5560   47.6100   37.2550 C.3    30  CYS30       0.0983
     11  SG        54.2920   48.5980   36.3850 S.3    30  CYS30      -0.0798
     12  N         54.4160   50.8840   29.7840 N.3    45  HIS45      -0.1226
     13  CA        53.3260   51.5650   30.4660 C.3    45  HIS45       0.1752
     14  C         53.5790   51.7490   31.9650 C.2    45  HIS45       0.2596
     15  O         52.7420   52.2940   32.6820 O.2    45  HIS45      -0.2718
     16  CB        51.9910   50.8380   30.2340 C.3    45  HIS45       0.0759
     17  CG        51.8140   49.5900   31.0410 C.ar   45  HIS45       0.0818
     18  ND1       52.1370   48.3390   30.5630 N.ar   45  HIS45      -0.2268
     19  CD2       51.2930   49.3970   32.2760 C.ar   45  HIS45       0.1154
     20  CE1       51.8160   47.4290   31.4650 C.ar   45  HIS45       0.1986
     21  NE2       51.3010   48.0440   32.5130 N.ar   45  HIS45      -0.2212
     22  N         54.7400   51.3060   32.4300 N.am   46  CYS46      -0.1970
     23  CA        55.1020   51.4280   33.8410 C.3    46  CYS46       0.1712
     24  C         55.9580   52.6710   34.0620 C.2    46  CYS46       0.2296
     25  O         56.4570   52.8910   35.1570 O.2    46  CYS46      -0.2864
     26  CB        55.8800   50.1860   34.3140 C.3    46  CYS46       0.0983
     27  SG        54.8860   48.6580   34.4310 S.3    46  CYS46      -0.0798
     28  N         56.5600   53.1620   21.3750 N.3    81  TYR81      -0.1241
     29  CA        55.5690   52.6930   22.3360 C.3    81  TYR81       0.1605
     30  C         54.2680   53.4230   22.0400 C.2    81  TYR81       0.2264
     31  O         54.2590   54.6480   21.9230 O.2    81  TYR81      -0.2867
     32  CB        56.0100   52.9750   23.7770 C.3    81  TYR81       0.0534
     33  CG        54.8980   52.7700   24.7800 C.ar   81  TYR81      -0.0201
     34  CD1       54.2200   51.5590   24.8560 C.ar   81  TYR81      -0.0009
     35  CD2       54.4960   53.7990   25.6230 C.ar   81  TYR81      -0.0009
     36  CE1       53.1670   51.3770   25.7410 C.ar   81  TYR81       0.0417
     37  CE2       53.4400   53.6300   26.5100 C.ar   81  TYR81       0.0417
     38  CZ        52.7790   52.4170   26.5630 C.ar   81  TYR81       0.1957
     39  OH        51.7170   52.2470   27.4240 O.3    81  TYR81      -0.2866
     40  N         50.8990   54.1250   23.6410 N.3    83  ASP83      -0.1239
     41  CA        50.0650   54.1300   24.8310 C.3    83  ASP83       0.1674
     42  C         48.6570   53.5680   24.6280 C.2    83  ASP83       0.2266
     43  O         48.2660   52.6120   25.2900 O.2    83  ASP83      -0.2867
     44  CB        49.9750   55.5560   25.3730 C.3    83  ASP83       0.1410
     45  CG        48.9550   55.6930   26.4750 C.2    83  ASP83       0.3668
     46  OD1       49.0730   54.9650   27.4840 O.co2  83  ASP83      -0.2456
     47  OD2       48.0340   56.5280   26.3310 O.co2  83  ASP83      -0.2456
     48  N         48.6640   49.9980   23.1110 N.3    86  VAL86      -0.1245
     49  CA        49.5300   49.1810   23.9460 C.3    86  VAL86       0.1561
     50  C         50.3940   48.3010   23.0660 C.2    86  VAL86       0.2260
     51  O         50.3410   47.0770   23.1540 O.2    86  VAL86      -0.2867
     52  CB        48.7240   48.2850   24.9050 C.3    86  VAL86       0.0252
     53  CG1       49.6490   47.6940   25.9660 C.3    86  VAL86       0.0019
     54  CG2       47.6140   49.0900   25.5510 C.3    86  VAL86       0.0019
     55  N         41.3250   40.4720   20.9570 N.3   157  PHE157     -0.1241
     56  CA        42.1260   41.6320   21.3230 C.3   157  PHE157      0.1605
     57  C         42.3790   42.4250   20.0470 C.2   157  PHE157      0.2264
     58  O         43.2430   42.0790   19.2460 O.2   157  PHE157     -0.2867
     59  CB        43.4560   41.2160   21.9580 C.3   157  PHE157      0.0534
     60  CG        43.3390   40.8080   23.4010 C.ar  157  PHE157     -0.0203
     61  CD1       42.8000   41.6780   24.3370 C.ar  157  PHE157     -0.0042
     62  CD2       43.7870   39.5640   23.8250 C.ar  157  PHE157     -0.0042
     63  CE1       42.7130   41.3150   25.6740 C.ar  157  PHE157     -0.0003
     64  CE2       43.7030   39.1930   25.1570 C.ar  157  PHE157     -0.0003
     65  CZ        43.1650   40.0710   26.0840 C.ar  157  PHE157     -0.0000
     66  N         48.1160   36.1630   34.6540 N.3   177  VAL177     -0.1231
     67  CA        48.8780   37.2510   35.2550 C.3   177  VAL177      0.1692
     68  C         47.8180   38.3330   35.4910 C.2   177  VAL177      0.2592
     69  O         46.6840   38.1910   35.0230 O.2   177  VAL177     -0.2718
     70  CB        49.9680   37.8010   34.3070 C.3   177  VAL177      0.0266
     71  CG1       51.1360   36.8400   34.2560 C.3   177  VAL177      0.0020
     72  CG2       49.3930   38.0270   32.9110 C.3   177  VAL177      0.0020
     73  N         48.1560   39.4040   36.2020 N.am  178  TYR178     -0.1962
     74  CA        47.1630   40.4490   36.4470 C.3   178  TYR178      0.1771
     75  C         47.7950   41.7430   36.9460 C.2   178  TYR178      0.2619
     76  O         49.0200   41.8860   36.9610 O.2   178  TYR178     -0.2715
     77  CB        46.1310   39.9450   37.4700 C.3   178  TYR178      0.0574
     78  CG        44.8000   40.6810   37.4730 C.ar  178  TYR178     -0.0198
     79  CD1       44.3290   41.2980   38.6270 C.ar  178  TYR178     -0.0009
     80  CD2       44.0090   40.7490   36.3260 C.ar  178  TYR178     -0.0009
     81  CE1       43.1170   41.9610   38.6450 C.ar  178  TYR178      0.0417
     82  CE2       42.7860   41.4120   36.3330 C.ar  178  TYR178      0.0417
     83  CZ        42.3480   42.0190   37.5000 C.ar  178  TYR178      0.1957
     84  OH        41.1480   42.7020   37.5270 O.3   178  TYR178     -0.2866
     85  N         46.9490   42.6820   37.3610 N.am  179  LYS179     -0.1963
     86  CA        47.4090   43.9680   37.8660 C.3   179  LYS179      0.1728
     87  C         48.6310   43.7990   38.7550 C.2   179  LYS179      0.2617
     88  O         48.6060   43.0400   39.7340 O.2   179  LYS179     -0.2715
     89  CB        46.2920   44.6580   38.6550 C.3   179  LYS179      0.0311
     90  CG        45.0770   45.0110   37.8140 C.3   179  LYS179      0.0038
     91  CD        44.0360   45.7870   38.6110 C.3   179  LYS179      0.0206
     92  CE        42.8320   46.1250   37.7390 C.3   179  LYS179      0.1093
     93  NZ        41.7540   46.8290   38.4920 N.3   179  LYS179     -0.1314
     94  N         49.6990   44.5120   38.4000 N.am  180  GLY180     -0.1940
     95  CA        50.9360   44.4480   39.1610 C.3   180  GLY180      0.2014
     96  C         51.9720   43.5160   38.5540 C.2   180  GLY180      0.2639
     97  O         53.1450   43.5780   38.9080 O.2   180  GLY180     -0.2714
     98  N         51.5470   42.6500   37.6390 N.am  181  ASP181     -0.1957
     99  CA        52.4720   41.7140   37.0120 C.3   181  ASP181      0.1840
    100  C         53.1650   42.2830   35.7870 C.2   181  ASP181      0.2622
    101  O         54.1500   41.7210   35.3140 O.2   181  ASP181     -0.2715
    102  CB        51.7540   40.4210   36.6290 C.3   181  ASP181      0.1450
    103  CG        51.3260   39.6200   37.8390 C.2   181  ASP181      0.3671
    104  OD1       52.1400   39.5020   38.7860 O.co2 181  ASP181     -0.2456
    105  OD2       50.1860   39.1050   37.8420 O.co2 181  ASP181     -0.2456
    106  N         52.6510   43.3940   35.2750 N.am  182  SER182     -0.1950
    107  CA        53.2390   44.0180   34.1060 C.3   182  SER182      0.1924
    108  C         54.7410   44.1100   34.3120 C.2   182  SER182      0.2314
    109  O         55.2080   44.3360   35.4320 O.2   182  SER182     -0.2863
    110  CB        52.6630   45.4180   33.9030 C.3   182  SER182      0.2116
    111  OG        51.2660   45.3650   33.6950 O.3   182  SER182     -0.2180
    112  N         55.1310   40.5090   30.5870 N.3   196  ALA196     -0.1231
    113  CA        53.6970   40.6590   30.8140 C.3   196  ALA196      0.1694
    114  C         53.2940   42.0680   30.3940 C.2   196  ALA196      0.2593
    115  O         53.8480   43.0480   30.8830 O.2   196  ALA196     -0.2718
    116  CB        53.3650   40.4240   32.2970 C.3   196  ALA196      0.0304
    117  N         52.3200   42.1710   29.4970 N.am  197  SER197     -0.1938
    118  CA        51.8680   43.4800   29.0270 C.3   197  SER197      0.2055
    119  C         50.4510   43.8420   29.4730 C.2   197  SER197      0.2643
    120  O         50.2690   44.7410   30.2870 O.2   197  SER197     -0.2714
    121  CB        51.9750   43.5490   27.4940 C.3   197  SER197      0.2130
    122  OG        51.5860   44.8200   27.0210 O.3   197  SER197     -0.2179
    123  N         49.4390   43.1670   28.9410 N.am  198  TYR198     -0.1959
    124  CA        48.0850   43.4980   29.3580 C.3   198  TYR198      0.1771
    125  C         47.1200   42.3270   29.5010 C.2   198  TYR198      0.2619
    126  O         47.3080   41.2550   28.9190 O.2   198  TYR198     -0.2715
    127  CB        47.4900   44.5780   28.4460 C.3   198  TYR198      0.0574
    128  CG        47.3250   44.2150   26.9860 C.ar  198  TYR198     -0.0198
    129  CD1       46.2110   43.5160   26.5410 C.ar  198  TYR198     -0.0009
    130  CD2       48.2460   44.6490   26.0380 C.ar  198  TYR198     -0.0009
    131  CE1       46.0140   43.2690   25.1850 C.ar  198  TYR198      0.0417
    132  CE2       48.0620   44.4060   24.6870 C.ar  198  TYR198      0.0417
    133  CZ        46.9420   43.7190   24.2610 C.ar  198  TYR198      0.1957
    134  OH        46.7450   43.5010   22.9090 O.3   198  TYR198     -0.2866
    135  N         46.0820   42.5560   30.2980 N.am  199  VAL199     -0.1963
    136  CA        45.0670   41.5550   30.5600 C.3   199  VAL199      0.1727
    137  C         43.6480   42.1100   30.4370 C.2   199  VAL199      0.2616
    138  O         43.4320   43.2800   30.1320 O.2   199  VAL199     -0.2715
    139  CB        45.2040   41.0180   31.9970 C.3   199  VAL199      0.0290
    140  CG1       46.6190   40.5200   32.2500 C.3   199  VAL199      0.0023
    141  CG2       44.8510   42.1230   32.9770 C.3   199  VAL199      0.0023
    142  N         42.6870   41.2330   30.6900 N.am  200  LEU200     -0.1963
    143  CA        41.2750   41.5660   30.6410 C.3   200  LEU200      0.1728
    144  C         40.9770   41.9460   32.0860 C.2   200  LEU200      0.2616
    145  O         41.5440   41.3570   33.0140 O.2   200  LEU200     -0.2715
    146  CB        40.4680   40.3280   30.2510 C.3   200  LEU200      0.0311
    147  CG        39.5680   40.3240   29.0110 C.3   200  LEU200      0.0022
    148  CD1       40.2930   40.8650   27.8010 C.3   200  LEU200      0.0001
    149  CD2       39.1130   38.8970   28.7620 C.3   200  LEU200      0.0001
    150  N         40.1200   42.9380   32.2880 N.am  201  ARG201     -0.1963
    151  CA        39.7880   43.3520   33.6430 C.3   201  ARG201      0.1729
    152  C         39.1900   42.1940   34.4320 C.2   201  ARG201      0.2616
    153  O         39.4080   42.0840   35.6400 O.2   201  ARG201     -0.2715
    154  CB        38.7950   44.5120   33.6300 C.3   201  ARG201      0.0348
    155  CG        39.3970   45.8420   33.2530 C.3   201  ARG201      0.0492
    156  CD        38.3950   46.9600   33.4730 C.3   201  ARG201      0.2205
    157  NE        38.9920   48.2750   33.2520 N.pl3 201  ARG201     -0.0865
    158  CZ        38.3580   49.4260   33.4530 C.cat 201  ARG201      0.5346
    159  NH1       37.1010   49.4300   33.8800 N.pl3 201  ARG201      0.1354
    160  NH2       38.9860   50.5750   33.2390 N.pl3 201  ARG201      0.1354
    161  N         38.4420   41.3280   33.7510 N.am  202  ASN202     -0.1972
    162  CA        37.8260   40.1920   34.4260 C.3   202  ASN202      0.1688
    163  C         38.7830   39.0270   34.6440 C.2   202  ASN202      0.2292
    164  O         38.3750   37.9590   35.0840 O.2   202  ASN202     -0.2864
    165  CB        36.5730   39.7190   33.6740 C.3   202  ASN202      0.1181
    166  CG        36.8600   39.2900   32.2520 C.2   202  ASN202      0.2629
    167  OD1       37.9320   38.7590   31.9510 O.2   202  ASN202     -0.2716
    168  ND2       35.8850   39.4910   31.3680 N.am  202  ASN202     -0.0877
@<TRIPOS>BOND
     1    58    57    2
     2    57    56    1
     3    55    56    1
     4    56    59    1
     5    28    29    1
     6    31    30    2
     7    59    60    1
     8    30    29    1
     9    29    32    1
    10   134   133    1
    11    50    51    2
    12    50    49    1
    13    48    49    1
    14    60    62   ar
    15    60    61   ar
    16    40    41    1
    17    32    33    1
    18    62    64   ar
    19    49    52    1
    20   133   132   ar
    21   133   131   ar
    22    61    63   ar
    23    42    41    1
    24    42    43    2
    25   132   130   ar
    26    33    34   ar
    27    33    35   ar
    28    41    44    1
    29    34    36   ar
    30    52    54    1
    31    52    53    1
    32    64    65   ar
    33   131   129   ar
    34    44    45    1
    35    35    37   ar
    36    63    65   ar
    37    36    38   ar
    38   130   128   ar
    39    47    45   ar
    40    45    46   ar
    41    37    38   ar
    42   129   128   ar
    43    38    39    1
    44   128   127    1
    45   122   121    1
    46   121   118    1
    47   148   147    1
    48   127   124    1
    49   149   147    1
    50   126   125    2
    51   123   124    1
    52   123   119   am
    53   147   146    1
    54   118   119    1
    55   118   117    1
    56   124   125    1
    57   119   120    2
    58   117   114   am
    59   125   135   am
    60    12    13    1
    61   138   137    2
    62    16    13    1
    63    16    17    1
    64   146   143    1
    65   135   136    1
    66   114   113    1
    67   114   115    2
    68   137   136    1
    69   137   142   am
    70    13    14    1
    71   136   139    1
    72    18    17   ar
    73    18    20   ar
    74   112   113    1
    75   143   142    1
    76   143   144    1
    77   113   116    1
    78    17    19   ar
    79   168   166   am
    80    20    21   ar
    81   167   166    2
    82    14    22   am
    83    14    15    2
    84   139   140    1
    85   139   141    1
    86   144   150   am
    87   144   145    2
    88   166   165    1
    89    19    21   ar
    90   150   151    1
    91    22    23    1
    92    72    70    1
    93   160   158    1
    94   157   158    2
    95   157   156    1
    96   155   156    1
    97   155   154    1
    98   158   159    1
    99   154   151    1
   100   151   152    1
   101   165   162    1
   102   111   110    1
   103   161   162    1
   104   161   152   am
   105    23    24    1
   106    23    26    1
   107   110   107    1
   108    24    25    2
   109   107   108    1
   110   107   106    1
   111    71    70    1
   112    70    67    1
   113   108   109    2
   114    26    27    1
   115   162   163    1
   116    27    11    1
   117   152   153    2
   118   163   164    2
   119    66    67    1
   120    69    68    2
   121    67    68    1
   122   106   100   am
   123   101   100    2
   124    68    73   am
   125   100    99    1
   126    73    74    1
   127    80    82   ar
   128    80    78   ar
   129    82    83   ar
   130    11    10    1
   131    74    75    1
   132    74    77    1
   133   102    99    1
   134   102   103    1
   135    75    76    2
   136    75    85   am
   137    99    98    1
   138    10     7    1
   139    85    86    1
   140    77    78    1
   141    78    79   ar
   142    83    84    1
   143    83    81   ar
   144    98    96   am
   145    92    93    1
   146    92    91    1
   147    90    91    1
   148    90    89    1
   149   103   105   ar
   150   103   104   ar
   151    86    89    1
   152    86    87    1
   153    94    87   am
   154    94    95    1
   155     7     8    1
   156     7     6    1
   157    96    97    2
   158    96    95    1
   159    79    81   ar
   160    87    88    2
   161     8     9    2
   162     4     3    2
   163     6     3   am
   164     3     2    1
   165     1     2    1
   166     2     5    1
