@<TRIPOS>MOLECULE
tmp/2rdnA01.pdb
 159 151 0 0 0
SMALL
GASTEIGER

@<TRIPOS>ATOM
      1  N         16.4510   25.9650    8.1610 N.3   114  THR114     -0.1218
      2  CA        17.0520   27.1830    8.7090 C.3   114  THR114      0.1862
      3  C         15.9870   27.9680    9.4700 C.2   114  THR114      0.2287
      4  O         14.8730   28.1760    8.9700 O.2   114  THR114     -0.2866
      5  CB        17.6850   28.0290    7.6020 C.3   114  THR114      0.1770
      6  OG1       18.7160   27.2540    6.9830 O.3   114  THR114     -0.2211
      7  CG2       18.3360   29.2890    8.1620 C.3   114  THR114      0.0375
      8  N         15.0090   31.5320   11.5770 N.3   116  ARG116     -0.1245
      9  CA        15.3900   32.9400   11.4970 C.3   116  ARG116      0.1563
     10  C         14.5790   33.7590   12.5030 C.2   116  ARG116      0.2260
     11  O         13.3520   33.6620   12.5590 O.2   116  ARG116     -0.2867
     12  CB        15.2310   33.4620   10.0650 C.3   116  ARG116      0.0307
     13  CG        16.0070   32.6230    9.0440 C.3   116  ARG116      0.0489
     14  CD        15.9300   33.2060    7.6480 C.3   116  ARG116      0.2205
     15  NE        16.3630   32.2400    6.6360 N.pl3 116  ARG116     -0.0865
     16  CZ        17.5770   32.1630    6.0930 C.cat 116  ARG116      0.5346
     17  NH1       18.5440   33.0190    6.4230 N.pl3 116  ARG116      0.1354
     18  NH2       17.8180   31.2160    5.1880 N.pl3 116  ARG116      0.1354
     19  N         21.0210   37.2330    3.9300 N.3   133  THR133     -0.1204
     20  CA        21.4980   36.6240    2.6920 C.3   133  THR133      0.1979
     21  C         21.5460   37.6460    1.5680 C.2   133  THR133      0.2459
     22  O         20.6640   38.5070    1.4670 O.2   133  THR133     -0.2732
     23  CB        20.6340   35.4210    2.2310 C.3   133  THR133      0.1783
     24  OG1       19.3540   35.8720    1.7700 O.3   133  THR133     -0.2211
     25  CG2       20.4680   34.4030    3.3500 C.3   133  THR133      0.0376
     26  N         22.5790   37.5540    0.7090 N.am  134  PRO134     -0.2728
     27  CA        22.6450   38.3790   -0.4920 C.3   134  PRO134      0.1401
     28  C         21.7330   37.7550   -1.5450 C.2   134  PRO134      0.2269
     29  O         21.1370   36.7060   -1.2890 O.2   134  PRO134     -0.2865
     30  CB        24.1000   38.2270   -0.9230 C.3   134  PRO134      0.0296
     31  CG        24.4770   36.8480   -0.4560 C.3   134  PRO134      0.0237
     32  CD        23.7340   36.6360    0.8220 C.3   134  PRO134      0.0939
     33  N         20.9540   35.2440   -4.1510 N.3   136  HIS136     -0.1241
     34  CA        21.5360   33.9360   -4.3860 C.3   136  HIS136      0.1621
     35  C         20.4680   33.0060   -4.9130 C.2   136  HIS136      0.2264
     36  O         19.2880   33.3470   -4.9360 O.2   136  HIS136     -0.2867
     37  CB        22.1380   33.3600   -3.0910 C.3   136  HIS136      0.0745
     38  CG        21.1150   33.0210   -2.0500 C.ar  136  HIS136      0.0817
     39  ND1       20.5160   33.9820   -1.2630 N.ar  136  HIS136     -0.2268
     40  CD2       20.5490   31.8410   -1.7020 C.ar  136  HIS136      0.1154
     41  CE1       19.6390   33.4020   -0.4590 C.ar  136  HIS136      0.1986
     42  NE2       19.6440   32.1010   -0.6970 N.ar  136  HIS136     -0.2212
     43  N         19.3150   28.9450   -4.2540 N.3   138  ASP138     -0.1239
     44  CA        19.5680   27.8090   -3.3790 C.3   138  ASP138      0.1674
     45  C         20.2800   26.6520   -4.1170 C.2   138  ASP138      0.2266
     46  O         21.0820   25.9300   -3.5200 O.2   138  ASP138     -0.2867
     47  CB        18.2810   27.3270   -2.7180 C.3   138  ASP138      0.1410
     48  CG        17.8780   28.1640   -1.5180 C.2   138  ASP138      0.3668
     49  OD1       18.3910   29.2940   -1.3190 O.co2 138  ASP138     -0.2456
     50  OD2       17.0310   27.6570   -0.7620 O.co2 138  ASP138     -0.2456
     51  N         22.6810   26.8940   -6.0670 N.3   140  PHE140     -0.1227
     52  CA        24.1220   27.1320   -6.0150 C.3   140  PHE140      0.1736
     53  C         24.7920   26.2530   -4.9690 C.2   140  PHE140      0.2595
     54  O         25.8920   25.7520   -5.2060 O.2   140  PHE140     -0.2718
     55  CB        24.4230   28.6130   -5.7510 C.3   140  PHE140      0.0547
     56  CG        25.8570   28.8890   -5.3700 C.ar  140  PHE140     -0.0202
     57  CD1       26.8770   28.7970   -6.3100 C.ar  140  PHE140     -0.0042
     58  CD2       26.1760   29.2370   -4.0620 C.ar  140  PHE140     -0.0042
     59  CE1       28.2110   29.0480   -5.9440 C.ar  140  PHE140     -0.0003
     60  CE2       27.4940   29.4940   -3.6890 C.ar  140  PHE140     -0.0003
     61  CZ        28.5050   29.3930   -4.6310 C.ar  140  PHE140     -0.0000
     62  N         24.1380   26.0530   -3.8270 N.am  141  TYR141     -0.1976
     63  CA        24.7600   25.2940   -2.7350 C.3   141  TYR141      0.1639
     64  C         24.0990   23.9560   -2.3950 C.2   141  TYR141      0.2290
     65  O         24.6930   23.1440   -1.6880 O.2   141  TYR141     -0.2864
     66  CB        24.9310   26.1670   -1.4870 C.3   141  TYR141      0.0560
     67  CG        23.6600   26.4910   -0.7550 C.ar  141  TYR141     -0.0198
     68  CD1       23.2550   25.7200    0.3290 C.ar  141  TYR141     -0.0009
     69  CD2       22.8670   27.5760   -1.1270 C.ar  141  TYR141     -0.0009
     70  CE1       22.0760   26.0070    1.0170 C.ar  141  TYR141      0.0417
     71  CE2       21.6880   27.8740   -0.4440 C.ar  141  TYR141      0.0417
     72  CZ        21.2960   27.0880    0.6260 C.ar  141  TYR141      0.1957
     73  OH        20.1300   27.3710    1.3060 O.3   141  TYR141     -0.2866
     74  N         29.1010   34.2820    7.5250 N.3   187  ARG187     -0.1245
     75  CA        28.7390   33.1780    8.4130 C.3   187  ARG187      0.1563
     76  C         30.0180   32.6930    9.0700 C.2   187  ARG187      0.2260
     77  O         31.0720   32.6060    8.4240 O.2   187  ARG187     -0.2867
     78  CB        28.0800   32.0320    7.6410 C.3   187  ARG187      0.0307
     79  CG        26.7640   32.3780    6.9840 C.3   187  ARG187      0.0489
     80  CD        25.6710   32.7790    7.9610 C.3   187  ARG187      0.2205
     81  NE        24.4070   32.9610    7.2500 N.pl3 187  ARG187     -0.0865
     82  CZ        24.0600   34.0610    6.5820 C.cat 187  ARG187      0.5346
     83  NH1       24.8730   35.1160    6.5370 N.pl3 187  ARG187      0.1354
     84  NH2       22.8910   34.1060    5.9500 N.pl3 187  ARG187      0.1354
     85  N         30.3380   35.0620    2.7300 N.3   192  VAL192     -0.1231
     86  CA        29.7500   34.0830    1.8380 C.3   192  VAL192      0.1692
     87  C         29.7390   34.6640    0.4210 C.2   192  VAL192      0.2591
     88  O         30.4830   35.6120    0.1380 O.2   192  VAL192     -0.2718
     89  CB        28.3770   33.5650    2.3490 C.3   192  VAL192      0.0266
     90  CG1       28.5700   32.8120    3.6660 C.3   192  VAL192      0.0020
     91  CG2       27.3580   34.7020    2.5040 C.3   192  VAL192      0.0020
     92  N         28.9560   34.0680   -0.4710 N.am  193  ARG193     -0.1980
     93  CA        28.9220   34.4950   -1.8690 C.3   193  ARG193      0.1597
     94  C         27.5080   34.8560   -2.2780 C.2   193  ARG193      0.2287
     95  O         26.5380   34.2520   -1.8100 O.2   193  ARG193     -0.2864
     96  CB        29.4520   33.3930   -2.7840 C.3   193  ARG193      0.0334
     97  CG        30.9130   33.0660   -2.5540 C.3   193  ARG193      0.0492
     98  CD        31.2990   31.7440   -3.1860 C.3   193  ARG193      0.2205
     99  NE        31.3500   31.8370   -4.6410 N.pl3 193  ARG193     -0.0865
    100  CZ        31.9370   30.9380   -5.4270 C.cat 193  ARG193      0.5346
    101  NH1       32.5310   29.8730   -4.9010 N.pl3 193  ARG193      0.1354
    102  NH2       31.9430   31.1090   -6.7440 N.pl3 193  ARG193      0.1354
    103  N         12.7400   28.1530    6.9010 N.3   243  ASP243     -0.1239
    104  CA        12.7680   27.6580    5.5350 C.3   243  ASP243      0.1674
    105  C         13.3880   26.2800    5.4810 C.2   243  ASP243      0.2266
    106  O         14.4080   26.0140    6.1220 O.2   243  ASP243     -0.2867
    107  CB        13.4700   28.6340    4.5620 C.3   243  ASP243      0.1410
    108  CG        14.7950   29.1540    5.0780 C.2   243  ASP243      0.3668
    109  OD1       14.7900   30.0980    5.8950 O.co2 243  ASP243     -0.2456
    110  OD2       15.8610   28.6470    4.6480 O.co2 243  ASP243     -0.2456
    111  N         13.6970   22.7390    2.4120 N.3   245  ARG245     -0.1245
    112  CA        13.5200   22.3640    1.0150 C.3   245  ARG245      0.1563
    113  C         12.7580   21.0550    0.9670 C.2   245  ARG245      0.2260
    114  O         12.8280   20.2470    1.8910 O.2   245  ARG245     -0.2867
    115  CB        14.8630   22.2640    0.2780 C.3   245  ARG245      0.0307
    116  CG        15.5920   23.6120    0.1020 C.3   245  ARG245      0.0489
    117  CD        16.4240   24.0520    1.3230 C.3   245  ARG245      0.2205
    118  NE        16.6450   25.4980    1.2680 N.pl3 245  ARG245     -0.0865
    119  CZ        16.4610   26.3510    2.2730 C.cat 245  ARG245      0.5346
    120  NH1       16.6000   27.6550    2.0630 N.pl3 245  ARG245      0.1354
    121  NH2       16.1530   25.9240    3.4950 N.pl3 245  ARG245      0.1354
    122  N         20.8580   20.7540   10.0010 N.3   261  TRP261     -0.1241
    123  CA        21.5680   22.0300   10.0200 C.3   261  TRP261      0.1605
    124  C         22.7520   22.0180   10.9920 C.2   261  TRP261      0.2264
    125  O         23.8380   22.4880   10.6570 O.2   261  TRP261     -0.2867
    126  CB        20.5900   23.1630   10.3630 C.3   261  TRP261      0.0550
    127  CG        21.1940   24.5250   10.2970 C.ar  261  TRP261      0.0003
    128  CD1       21.1640   25.3800    9.2370 C.ar  261  TRP261      0.0946
    129  CD2       21.9260   25.1890   11.3340 C.ar  261  TRP261      0.0152
    130  NE1       21.8380   26.5440    9.5470 N.ar  261  TRP261     -0.2442
    131  CE2       22.3130   26.4490   10.8300 C.ar  261  TRP261      0.0810
    132  CE3       22.2880   24.8420   12.6410 C.ar  261  TRP261      0.0012
    133  CZ2       23.0560   27.3630   11.5880 C.ar  261  TRP261      0.0191
    134  CZ3       23.0290   25.7500   13.3910 C.ar  261  TRP261      0.0001
    135  CH2       23.4050   26.9920   12.8590 C.ar  261  TRP261      0.0015
    136  N         25.8780   23.0640    8.5660 N.3   265  ALA265     -0.1245
    137  CA        25.9460   24.4960    8.2420 C.3   265  ALA265      0.1562
    138  C         27.3770   25.0340    8.1950 C.2   265  ALA265      0.2260
    139  O         27.7570   25.7130    7.2390 O.2   265  ALA265     -0.2867
    140  CB        25.0890   25.3060    9.2100 C.3   265  ALA265      0.0290
    141  N         29.2820   23.4920    5.1700 N.3   268  ALA268     -0.1231
    142  CA        28.7060   23.9990    3.9250 C.3   268  ALA268      0.1694
    143  C         29.0550   25.4690    3.6790 C.2   268  ALA268      0.2592
    144  O         29.2950   25.8690    2.5310 O.2   268  ALA268     -0.2718
    145  CB        27.1910   23.7940    3.9070 C.3   268  ALA268      0.0304
    146  N         29.0890   26.2570    4.7570 N.am  269  SER269     -0.1952
    147  CA        29.4120   27.6830    4.6760 C.3   269  SER269      0.1924
    148  C         30.8470   27.9060    4.1980 C.2   269  SER269      0.2314
    149  O         31.1220   28.8580    3.4680 O.2   269  SER269     -0.2863
    150  CB        29.1620   28.3670    6.0220 C.3   269  SER269      0.2116
    151  OG        27.7840   28.2920    6.3520 O.3   269  SER269     -0.2180
    152  N         31.1210   26.3060    0.1380 N.3   272  ILE272     -0.1245
    153  CA        30.6500   27.1060   -0.9960 C.3   272  ILE272      0.1561
    154  C         31.7280   28.0010   -1.6060 C.2   272  ILE272      0.2260
    155  O         31.6320   28.3880   -2.7670 O.2   272  ILE272     -0.2867
    156  CB        29.4180   27.9770   -0.6530 C.3   272  ILE272      0.0252
    157  CG1       29.6800   28.8910    0.5520 C.3   272  ILE272      0.0019
    158  CG2       28.1810   27.1030   -0.4600 C.3   272  ILE272      0.0019
    159  CD1       28.7750   30.1210    0.5950 C.3   272  ILE272      0.0001
@<TRIPOS>BOND
     1   102   100    1
     2    57    59   ar
     3    57    56   ar
     4    51    52    1
     5    52    55    1
     6    52    53    1
     7    59    61   ar
     8    55    56    1
     9   100   101    1
    10   100    99    2
    11    56    58   ar
    12    54    53    2
    13    53    62   am
    14    36    35    2
    15    35    34    1
    16    99    98    1
    17    61    60   ar
    18    34    33    1
    19    34    37    1
    20    43    44    1
    21    45    46    2
    22    45    44    1
    23    58    60   ar
    24    62    63    1
    25    44    47    1
    26    98    97    1
    27    37    38    1
    28    96    97    1
    29    96    93    1
    30   155   154    2
    31    63    64    1
    32    63    66    1
    33    47    48    1
    34    64    65    2
    35    94    93    1
    36    94    95    2
    37    38    40   ar
    38    38    39   ar
    39    93    92    1
    40    40    42   ar
    41   154   153    1
    42    28    29    2
    43    28    27    1
    44    48    49   ar
    45    48    50   ar
    46    66    67    1
    47    39    41   ar
    48    69    67   ar
    49    69    71   ar
    50   153   156    1
    51   153   152    1
    52    30    27    1
    53    30    31    1
    54    67    68   ar
    55    42    41   ar
    56   156   158    1
    57   156   157    1
    58    27    26    1
    59    92    87   am
    60    31    32    1
    61    71    72   ar
    62   116   115    1
    63   116   117    1
    64    88    87    2
    65   115   112    1
    66    68    70   ar
    67    87    86    1
    68   157   159    1
    69    72    70   ar
    70    72    73    1
    71    26    32    1
    72    26    21   am
    73   113   112    1
    74   113   114    2
    75   112   111    1
    76   118   117    1
    77   118   119    2
    78    22    21    2
    79    21    20    1
    80    24    23    1
    81    86    89    1
    82    86    85    1
    83   120   119    1
    84    23    20    1
    85    23    25    1
    86   119   121    1
    87    89    91    1
    88    89    90    1
    89   144   143    2
    90    20    19    1
    91   149   148    2
    92   143   142    1
    93   143   146   am
    94   145   142    1
    95   142   141    1
    96   148   147    1
    97   107   108    1
    98   107   104    1
    99   110   108   ar
   100   147   146    1
   101   147   150    1
   102   108   109   ar
   103    18    16    1
   104   105   104    1
   105   105   106    2
   106   104   103    1
   107    84    82    1
   108   150   151    1
   109    16    17    1
   110    16    15    2
   111    83    82    1
   112    82    81    2
   113    15    14    1
   114     6     5    1
   115    79    78    1
   116    79    80    1
   117   139   138    2
   118    81    80    1
   119    74    75    1
   120     5     7    1
   121     5     2    1
   122    78    75    1
   123    14    13    1
   124     1     2    1
   125   138   137    1
   126   137   136    1
   127   137   140    1
   128    75    76    1
   129    77    76    2
   130     2     3    1
   131     4     3    2
   132    13    12    1
   133   128   130   ar
   134   128   127   ar
   135   130   131   ar
   136   122   123    1
   137   123   126    1
   138   123   124    1
   139    12     9    1
   140   127   126    1
   141   127   129   ar
   142   125   124    2
   143   131   129   ar
   144   131   133   ar
   145   129   132   ar
   146     9     8    1
   147     9    10    1
   148   133   135   ar
   149    10    11    2
   150   132   134   ar
   151   135   134   ar
