@<TRIPOS>MOLECULE
tmp/2rdnA00.pdb
 137 129 0 0 0
SMALL
GASTEIGER

@<TRIPOS>ATOM
      1  N         15.0090   31.5320   11.5770 N.3   116  ARG116     -0.1245
      2  CA        15.3900   32.9400   11.4970 C.3   116  ARG116      0.1563
      3  C         14.5790   33.7590   12.5030 C.2   116  ARG116      0.2260
      4  O         13.3520   33.6620   12.5590 O.2   116  ARG116     -0.2867
      5  CB        15.2310   33.4620   10.0650 C.3   116  ARG116      0.0307
      6  CG        16.0070   32.6230    9.0440 C.3   116  ARG116      0.0489
      7  CD        15.9300   33.2060    7.6480 C.3   116  ARG116      0.2205
      8  NE        16.3630   32.2400    6.6360 N.pl3 116  ARG116     -0.0865
      9  CZ        17.5770   32.1630    6.0930 C.cat 116  ARG116      0.5346
     10  NH1       18.5440   33.0190    6.4230 N.pl3 116  ARG116      0.1354
     11  NH2       17.8180   31.2160    5.1880 N.pl3 116  ARG116      0.1354
     12  N         14.9380   37.5680   13.6530 N.3   118  TYR118     -0.1241
     13  CA        15.7060   38.7650   13.3480 C.3   118  TYR118      0.1605
     14  C         15.0150   39.9930   13.9350 C.2   118  TYR118      0.2264
     15  O         13.9000   40.3370   13.5230 O.2   118  TYR118     -0.2867
     16  CB        15.8320   38.9290   11.8320 C.3   118  TYR118      0.0534
     17  CG        16.5510   37.8310   11.0530 C.ar  118  TYR118     -0.0201
     18  CD1       17.5470   37.0370   11.6300 C.ar  118  TYR118     -0.0009
     19  CD2       16.2630   37.6380    9.7030 C.ar  118  TYR118     -0.0009
     20  CE1       18.2130   36.0620   10.8750 C.ar  118  TYR118      0.0417
     21  CE2       16.9280   36.6830    8.9440 C.ar  118  TYR118      0.0417
     22  CZ        17.9010   35.8980    9.5290 C.ar  118  TYR118      0.1957
     23  OH        18.5550   34.9570    8.7630 O.3   118  TYR118     -0.2866
     24  N         21.0210   37.2330    3.9300 N.3   133  THR133     -0.1218
     25  CA        21.4980   36.6240    2.6920 C.3   133  THR133      0.1862
     26  C         21.5460   37.6460    1.5680 C.2   133  THR133      0.2287
     27  O         20.6640   38.5070    1.4670 O.2   133  THR133     -0.2866
     28  CB        20.6340   35.4210    2.2310 C.3   133  THR133      0.1770
     29  OG1       19.3540   35.8720    1.7700 O.3   133  THR133     -0.2211
     30  CG2       20.4680   34.4030    3.3500 C.3   133  THR133      0.0375
     31  N         20.9540   35.2440   -4.1510 N.3   136  HIS136     -0.1241
     32  CA        21.5360   33.9360   -4.3860 C.3   136  HIS136      0.1621
     33  C         20.4680   33.0060   -4.9130 C.2   136  HIS136      0.2264
     34  O         19.2880   33.3470   -4.9360 O.2   136  HIS136     -0.2867
     35  CB        22.1380   33.3600   -3.0910 C.3   136  HIS136      0.0745
     36  CG        21.1150   33.0210   -2.0500 C.ar  136  HIS136      0.0817
     37  ND1       20.5160   33.9820   -1.2630 N.ar  136  HIS136     -0.2268
     38  CD2       20.5490   31.8410   -1.7020 C.ar  136  HIS136      0.1154
     39  CE1       19.6390   33.4020   -0.4590 C.ar  136  HIS136      0.1986
     40  NE2       19.6440   32.1010   -0.6970 N.ar  136  HIS136     -0.2212
     41  N         19.3150   28.9450   -4.2540 N.3   138  ASP138     -0.1239
     42  CA        19.5680   27.8090   -3.3790 C.3   138  ASP138      0.1674
     43  C         20.2800   26.6520   -4.1170 C.2   138  ASP138      0.2266
     44  O         21.0820   25.9300   -3.5200 O.2   138  ASP138     -0.2867
     45  CB        18.2810   27.3270   -2.7180 C.3   138  ASP138      0.1410
     46  CG        17.8780   28.1640   -1.5180 C.2   138  ASP138      0.3668
     47  OD1       18.3910   29.2940   -1.3190 O.co2 138  ASP138     -0.2456
     48  OD2       17.0310   27.6570   -0.7620 O.co2 138  ASP138     -0.2456
     49  N         12.3490   25.4270   -2.4070 N.3   150  THR150     -0.1218
     50  CA        12.4390   25.9920   -1.0640 C.3   150  THR150      0.1862
     51  C         11.0550   26.3860   -0.5780 C.2   150  THR150      0.2287
     52  O         10.2840   26.9910   -1.3240 O.2   150  THR150     -0.2866
     53  CB        13.3870   27.1820   -1.0550 C.3   150  THR150      0.1770
     54  OG1       14.6620   26.7190   -1.4990 O.3   150  THR150     -0.2211
     55  CG2       13.5180   27.7940    0.3410 C.3   150  THR150      0.0375
     56  N          9.2840   28.5210    2.4090 N.3   152  TRP152     -0.1241
     57  CA         9.6010   29.5990    3.3360 C.3   152  TRP152      0.1605
     58  C          8.3130   29.9800    4.0340 C.2   152  TRP152      0.2264
     59  O          7.3120   30.3030    3.3790 O.2   152  TRP152     -0.2867
     60  CB        10.1410   30.7880    2.5400 C.3   152  TRP152      0.0550
     61  CG        10.7550   31.9120    3.3340 C.ar  152  TRP152      0.0003
     62  CD1       12.0920   32.1530    3.4940 C.ar  152  TRP152      0.0946
     63  CD2       10.0690   32.9710    4.0370 C.ar  152  TRP152      0.0152
     64  NE1       12.2840   33.2800    4.2580 N.ar  152  TRP152     -0.2442
     65  CE2       11.0660   33.8020    4.6030 C.ar  152  TRP152      0.0810
     66  CE3        8.7200   33.2970    4.2410 C.ar  152  TRP152      0.0012
     67  CZ2       10.7600   34.9320    5.3680 C.ar  152  TRP152      0.0191
     68  CZ3        8.4170   34.4270    5.0140 C.ar  152  TRP152      0.0001
     69  CH2        9.4340   35.2240    5.5630 C.ar  152  TRP152      0.0015
     70  N         11.6440   39.8780    5.2360 N.3   164  GLY164     -0.1210
     71  CA        11.3280   38.5620    4.7020 C.3   164  GLY164      0.1956
     72  C         12.2700   38.2640    3.5590 C.2   164  GLY164      0.2611
     73  O         13.4480   38.6270    3.6180 O.2   164  GLY164     -0.2717
     74  N         11.7520   37.6060    2.5250 N.am  165  VAL165     -0.1979
     75  CA        12.5720   37.2550    1.3650 C.3   165  VAL165      0.1595
     76  C         11.9930   37.9010    0.1080 C.2   165  VAL165      0.2287
     77  O         10.7710   37.8620   -0.1030 O.2   165  VAL165     -0.2864
     78  CB        12.7570   35.7050    1.2480 C.3   165  VAL165      0.0276
     79  CG1       11.4350   34.9770    1.0430 C.3   165  VAL165      0.0022
     80  CG2       13.7420   35.3420    0.1380 C.3   165  VAL165      0.0022
     81  N          9.6910   28.3070   -3.9240 N.3   219  PHE219     -0.1241
     82  CA        10.3830   28.7180   -5.1460 C.3   219  PHE219      0.1605
     83  C         11.4250   27.7310   -5.6470 C.2   219  PHE219      0.2264
     84  O         12.0020   26.9330   -4.8870 O.2   219  PHE219     -0.2867
     85  CB        10.9820   30.1300   -5.0250 C.3   219  PHE219      0.0534
     86  CG        11.7290   30.3820   -3.7370 C.ar  219  PHE219     -0.0203
     87  CD1       13.0950   30.1370   -3.6540 C.ar  219  PHE219     -0.0042
     88  CD2       11.0760   30.9010   -2.6220 C.ar  219  PHE219     -0.0042
     89  CE1       13.7920   30.3870   -2.4690 C.ar  219  PHE219     -0.0003
     90  CE2       11.7730   31.1440   -1.4410 C.ar  219  PHE219     -0.0003
     91  CZ        13.1230   30.8990   -1.3700 C.ar  219  PHE219     -0.0000
     92  N         16.9790   35.1990   -5.1210 N.3   225  HIS225     -0.1241
     93  CA        16.2500   35.7890   -4.0010 C.3   225  HIS225      0.1621
     94  C         17.2260   36.3290   -2.9740 C.2   225  HIS225      0.2264
     95  O         18.3890   35.9360   -2.9620 O.2   225  HIS225     -0.2867
     96  CB        15.2930   34.7650   -3.3720 C.3   225  HIS225      0.0745
     97  CG        15.9700   33.5540   -2.8160 C.ar  225  HIS225      0.0817
     98  ND1       16.4870   32.5580   -3.6150 N.ar  225  HIS225     -0.2268
     99  CD2       16.1950   33.1650   -1.5360 C.ar  225  HIS225      0.1154
    100  CE1       17.0120   31.6160   -2.8480 C.ar  225  HIS225      0.1986
    101  NE2       16.8560   31.9620   -1.5820 N.ar  225  HIS225     -0.2212
    102  N         17.4700   38.3740    1.2570 N.3   227  SER227     -0.1217
    103  CA        16.8130   38.8390    2.4770 C.3   227  SER227      0.1889
    104  C         16.4480   40.2980    2.3810 C.2   227  SER227      0.2288
    105  O         17.1720   41.0970    1.7690 O.2   227  SER227     -0.2866
    106  CB        17.7260   38.7010    3.6900 C.3   227  SER227      0.2089
    107  OG        18.1940   37.3820    3.8500 O.3   227  SER227     -0.2183
    108  N         11.1900   39.5810   12.9680 N.3   239  ARG239     -0.1245
    109  CA        10.8450   38.7800   11.8010 C.3   239  ARG239      0.1563
    110  C         11.2300   37.3530   12.1590 C.2   239  ARG239      0.2260
    111  O         12.4030   37.0450   12.3730 O.2   239  ARG239     -0.2867
    112  CB        11.5160   39.2860   10.5190 C.3   239  ARG239      0.0307
    113  CG        10.9430   38.6240    9.2610 C.3   239  ARG239      0.0489
    114  CD        11.7960   37.4540    8.7790 C.3   239  ARG239      0.2205
    115  NE        12.9270   37.9690    8.0160 N.pl3 239  ARG239     -0.0865
    116  CZ        13.7220   37.2300    7.2490 C.cat 239  ARG239      0.5346
    117  NH1       13.5740   35.9150    7.1880 N.pl3 239  ARG239      0.1354
    118  NH2       14.6840   37.8180    6.5590 N.pl3 239  ARG239      0.1354
    119  N         12.7400   28.1530    6.9010 N.3   243  ASP243     -0.1239
    120  CA        12.7680   27.6580    5.5350 C.3   243  ASP243      0.1674
    121  C         13.3880   26.2800    5.4810 C.2   243  ASP243      0.2266
    122  O         14.4080   26.0140    6.1220 O.2   243  ASP243     -0.2867
    123  CB        13.4700   28.6340    4.5620 C.3   243  ASP243      0.1410
    124  CG        14.7950   29.1540    5.0780 C.2   243  ASP243      0.3668
    125  OD1       14.7900   30.0980    5.8950 O.co2 243  ASP243     -0.2456
    126  OD2       15.8610   28.6470    4.6480 O.co2 243  ASP243     -0.2456
    127  N         13.6970   22.7390    2.4120 N.3   245  ARG245     -0.1245
    128  CA        13.5200   22.3640    1.0150 C.3   245  ARG245      0.1563
    129  C         12.7580   21.0550    0.9670 C.2   245  ARG245      0.2260
    130  O         12.8280   20.2470    1.8910 O.2   245  ARG245     -0.2867
    131  CB        14.8630   22.2640    0.2780 C.3   245  ARG245      0.0307
    132  CG        15.5920   23.6120    0.1020 C.3   245  ARG245      0.0489
    133  CD        16.4240   24.0520    1.3230 C.3   245  ARG245      0.2205
    134  NE        16.6450   25.4980    1.2680 N.pl3 245  ARG245     -0.0865
    135  CZ        16.4610   26.3510    2.2730 C.cat 245  ARG245      0.5346
    136  NH1       16.6000   27.6550    2.0630 N.pl3 245  ARG245      0.1354
    137  NH2       16.1530   25.9240    3.4950 N.pl3 245  ARG245      0.1354
@<TRIPOS>BOND
     1    83    82    1
     2    83    84    2
     3    82    85    1
     4    82    81    1
     5    92    93    1
     6    85    86    1
     7    34    33    2
     8    33    32    1
     9    32    31    1
    10    32    35    1
    11    41    42    1
    12    43    44    2
    13    43    42    1
    14    93    96    1
    15    93    94    1
    16    86    87   ar
    17    86    88   ar
    18    87    89   ar
    19    98   100   ar
    20    98    97   ar
    21    42    45    1
    22    96    97    1
    23    35    36    1
    24    94    95    2
    25   100   101   ar
    26    97    99   ar
    27    45    46    1
    28    88    90   ar
    29    89    91   ar
    30    49    50    1
    31    36    38   ar
    32    36    37   ar
    33    38    40   ar
    34   101    99   ar
    35    46    47   ar
    36    46    48   ar
    37    54    53    1
    38    90    91   ar
    39    52    51    2
    40    37    39   ar
    41    50    53    1
    42    50    51    1
    43    53    55    1
    44    40    39   ar
    45    77    76    2
    46   132   131    1
    47   132   133    1
    48    76    75    1
    49    80    78    1
    50   131   128    1
    51   129   128    1
    52   129   130    2
    53   128   127    1
    54    79    78    1
    55    78    75    1
    56   102   103    1
    57   134   133    1
    58   134   135    2
    59    75    74    1
    60    27    26    2
    61    26    25    1
    62   105   104    2
    63    29    28    1
    64   136   135    1
    65    28    25    1
    66    28    30    1
    67   135   137    1
    68   104   103    1
    69    56    57    1
    70   103   106    1
    71    74    72   am
    72    60    61    1
    73    60    57    1
    74    25    24    1
    75    61    62   ar
    76    61    63   ar
    77    57    58    1
    78    59    58    2
    79    62    64   ar
    80    72    73    2
    81    72    71    1
    82   106   107    1
    83    63    66   ar
    84    63    65   ar
    85    66    68   ar
    86    64    65   ar
    87   123   124    1
    88   123   120    1
    89    65    67   ar
    90   126   124   ar
    91    71    70    1
    92    68    69   ar
    93   124   125   ar
    94    11     9    1
    95    67    69   ar
    96   121   120    1
    97   121   122    2
    98   120   119    1
    99     9    10    1
   100     9     8    2
   101   118   116    1
   102     8     7    1
   103   117   116    1
   104   116   115    2
   105     7     6    1
   106   115   114    1
   107    23    22    1
   108   114   113    1
   109    21    22   ar
   110    21    19   ar
   111     6     5    1
   112   113   112    1
   113    22    20   ar
   114    19    17   ar
   115     5     2    1
   116   112   109    1
   117    20    18   ar
   118    17    18   ar
   119    17    16    1
   120     2     1    1
   121     2     3    1
   122   109   110    1
   123   109   108    1
   124    16    13    1
   125   110   111    2
   126     3     4    2
   127    13    12    1
   128    13    14    1
   129    15    14    2
