@<TRIPOS>MOLECULE
tmp/2rdrA00.pdb
 149 141 0 0 0
SMALL
GASTEIGER

@<TRIPOS>ATOM
      1  N          0.1540    0.2460   24.2360 N.3   115  ARG115     -0.1245
      2  CA         0.4840    1.6450   24.5240 C.3   115  ARG115      0.1563
      3  C         -0.7870    2.4860   24.4980 C.2   115  ARG115      0.2260
      4  O         -1.6030    2.3740   23.5760 O.2   115  ARG115     -0.2867
      5  CB         1.5530    2.1780   23.5480 C.3   115  ARG115      0.0307
      6  CG         2.8710    1.3780   23.5680 C.3   115  ARG115      0.0489
      7  CD         3.8260    1.8210   22.4670 C.3   115  ARG115      0.2205
      8  NE         4.9760    0.9120   22.3500 N.pl3 115  ARG115     -0.0865
      9  CZ         6.1080    1.0450   23.0400 C.cat 115  ARG115      0.5346
     10  NH1        6.2730    2.0470   23.9020 N.pl3 115  ARG115      0.1354
     11  NH2        7.0890    0.1630   22.8610 N.pl3 115  ARG115      0.1354
     12  N         -1.3890    6.3290   25.5390 N.3   117  TYR117     -0.1241
     13  CA        -0.6860    7.5470   25.9480 C.3   117  TYR117      0.1605
     14  C         -1.5760    8.7880   25.8100 C.2   117  TYR117      0.2264
     15  O         -1.9980    9.1460   24.6950 O.2   117  TYR117     -0.2867
     16  CB         0.5760    7.7340   25.0870 C.3   117  TYR117      0.0534
     17  CG         1.6450    6.6480   25.1710 C.ar  117  TYR117     -0.0201
     18  CD1        1.8110    5.8610   26.3190 C.ar  117  TYR117     -0.0009
     19  CD2        2.5250    6.4460   24.1020 C.ar  117  TYR117     -0.0009
     20  CE1        2.8270    4.8870   26.3950 C.ar  117  TYR117      0.0417
     21  CE2        3.5520    5.4810   24.1600 C.ar  117  TYR117      0.0417
     22  CZ         3.6860    4.6980   25.3120 C.ar  117  TYR117      0.1957
     23  OH         4.6860    3.7640   25.3930 O.3   117  TYR117     -0.2866
     24  N         10.1110    5.6440   24.0090 N.3   132  THR132     -0.1218
     25  CA        11.3780    5.0810   23.5490 C.3   132  THR132      0.1862
     26  C         12.2480    6.1450   22.8590 C.2   132  THR132      0.2287
     27  O         11.7350    6.9850   22.0860 O.2   132  THR132     -0.2866
     28  CB        11.1540    3.8500   22.6120 C.3   132  THR132      0.1770
     29  OG1       10.6510    4.2870   21.3450 O.3   132  THR132     -0.2211
     30  CG2       10.1290    2.8720   23.2210 C.3   132  THR132      0.0375
     31  N         16.1920    3.5610   18.8090 N.3   135  HIS135     -0.1241
     32  CA        16.7160    2.2200   19.0820 C.3   135  HIS135      0.1621
     33  C         16.4490    1.2880   17.8990 C.2   135  HIS135      0.2264
     34  O         15.7530    1.6690   16.9410 O.2   135  HIS135     -0.2867
     35  CB        16.1290    1.6540   20.3830 C.3   135  HIS135      0.0745
     36  CG        14.6590    1.3890   20.3160 C.ar  135  HIS135      0.0817
     37  ND1       13.7130    2.3950   20.3530 N.ar  135  HIS135     -0.2268
     38  CD2       13.9720    0.2250   20.2040 C.ar  135  HIS135      0.1154
     39  CE1       12.5050    1.8590   20.2650 C.ar  135  HIS135      0.1986
     40  NE2       12.6370    0.5420   20.1880 N.ar  135  HIS135     -0.2212
     41  N         15.0870   -2.7760   17.4790 N.3   137  ASP137     -0.1239
     42  CA        14.5150   -3.8740   18.2590 C.3   137  ASP137      0.1674
     43  C         15.5250   -5.0230   18.3460 C.2   137  ASP137      0.2266
     44  O         15.6140   -5.7190   19.3710 O.2   137  ASP137     -0.2867
     45  CB        13.1530   -4.3250   17.6980 C.3   137  ASP137      0.1410
     46  CG        11.9990   -3.4020   18.1090 C.2   137  ASP137      0.3668
     47  OD1       12.2420   -2.2560   18.5830 O.co2 137  ASP137     -0.2456
     48  OD2       10.8430   -3.8160   17.9360 O.co2 137  ASP137     -0.2456
     49  N         17.7860   -5.7030   21.4400 N.3   140  TYR140     -0.1241
     50  CA        17.3260   -6.4010   22.6430 C.3   140  TYR140      0.1605
     51  C         16.4940   -7.6550   22.3480 C.2   140  TYR140      0.2264
     52  O         16.0880   -8.3520   23.2840 O.2   140  TYR140     -0.2867
     53  CB        16.5610   -5.4350   23.5520 C.3   140  TYR140      0.0534
     54  CG        15.2020   -5.0510   23.0220 C.ar  140  TYR140     -0.0201
     55  CD1       14.0660   -5.7340   23.4360 C.ar  140  TYR140     -0.0009
     56  CD2       15.0500   -4.0050   22.1100 C.ar  140  TYR140     -0.0009
     57  CE1       12.8140   -5.4000   22.9650 C.ar  140  TYR140      0.0417
     58  CE2       13.7840   -3.6580   21.6280 C.ar  140  TYR140      0.0417
     59  CZ        12.6780   -4.3670   22.0600 C.ar  140  TYR140      0.1957
     60  OH        11.4260   -4.0690   21.6070 O.3   140  TYR140     -0.2866
     61  N          9.1610   -5.9970   13.2450 N.3   149  THR149     -0.1218
     62  CA         8.2310   -5.4100   14.2060 C.3   149  THR149      0.1862
     63  C          6.9660   -4.9750   13.4620 C.2   149  THR149      0.2287
     64  O          7.0460   -4.3550   12.4020 O.2   149  THR149     -0.2866
     65  CB         8.8890   -4.2490   14.9740 C.3   149  THR149      0.1770
     66  OG1       10.0390   -4.7470   15.6790 O.3   149  THR149     -0.2211
     67  CG2        7.9100   -3.6470   15.9660 C.3   149  THR149      0.0375
     68  N          3.5700   -2.8110   13.9960 N.3   151  TRP151     -0.1241
     69  CA         3.0760   -1.7050   14.8150 C.3   151  TRP151      0.1605
     70  C          1.7310   -1.2560   14.2610 C.2   151  TRP151      0.2264
     71  O          1.6310   -0.8870   13.0730 O.2   151  TRP151     -0.2867
     72  CB         4.0680   -0.5400   14.7500 C.3   151  TRP151      0.0550
     73  CG         3.8020    0.6110   15.7360 C.ar  151  TRP151      0.0003
     74  CD1        4.4790    0.8560   16.9000 C.ar  151  TRP151      0.0946
     75  CD2        2.8410    1.6840   15.6020 C.ar  151  TRP151      0.0152
     76  NE1        3.9950    2.0010   17.5030 N.ar  151  TRP151     -0.2442
     77  CE2        2.9810    2.5150   16.7400 C.ar  151  TRP151      0.0810
     78  CE3        1.8640    2.0100   14.6430 C.ar  151  TRP151      0.0012
     79  CZ2        2.1870    3.6650   16.9420 C.ar  151  TRP151      0.0191
     80  CZ3        1.0680    3.1580   14.8450 C.ar  151  TRP151      0.0001
     81  CH2        1.2330    3.9610   15.9920 C.ar  151  TRP151      0.0015
     82  N          3.1650    8.4760   17.6780 N.3   163  GLY163     -0.1210
     83  CA         3.3360    7.1360   17.1390 C.3   163  GLY163      0.1956
     84  C          4.8150    6.8210   17.1190 C.2   163  GLY163      0.2611
     85  O          5.5520    7.2190   18.0330 O.2   163  GLY163     -0.2717
     86  N          5.2520    6.1210   16.0760 N.am  164  VAL164     -0.1979
     87  CA         6.6700    5.7730   15.9300 C.3   164  VAL164      0.1595
     88  C          7.2330    6.4420   14.6800 C.2   164  VAL164      0.2287
     89  O          6.5620    6.4980   13.6400 O.2   164  VAL164     -0.2864
     90  CB         6.9010    4.2240   15.9630 C.3   164  VAL164      0.0276
     91  CG1        6.1670    3.5110   14.8450 C.3   164  VAL164      0.0022
     92  CG2        8.3730    3.8820   15.9520 C.3   164  VAL164      0.0022
     93  N          8.7390   -3.0810   10.3020 N.3   218  PHE218     -0.1241
     94  CA        10.1110   -2.6960   10.0390 C.3   218  PHE218      0.1605
     95  C         11.1540   -3.6880   10.5020 C.2   218  PHE218      0.2264
     96  O         10.9190   -4.4800   11.4290 O.2   218  PHE218     -0.2867
     97  CB        10.4180   -1.2840   10.5870 C.3   218  PHE218      0.0534
     98  CG         9.9240   -1.0360   12.0060 C.ar  218  PHE218     -0.0203
     99  CD1       10.7440   -1.2950   13.1060 C.ar  218  PHE218     -0.0042
    100  CD2        8.6520   -0.4930   12.2300 C.ar  218  PHE218     -0.0042
    101  CE1       10.3000   -1.0440   14.4180 C.ar  218  PHE218     -0.0003
    102  CE2        8.1900   -0.2550   13.5450 C.ar  218  PHE218     -0.0003
    103  CZ         9.0160   -0.5330   14.6320 C.ar  218  PHE218     -0.0000
    104  N         14.4220    3.5980   15.1270 N.3   224  HIS224     -0.1241
    105  CA        13.1090    4.2270   15.2990 C.3   224  HIS224      0.1621
    106  C         12.9400    4.7110   16.7280 C.2   224  HIS224      0.2264
    107  O         13.6270    4.2280   17.6450 O.2   224  HIS224     -0.2867
    108  CB        11.9810    3.2370   14.9670 C.3   224  HIS224      0.0745
    109  CG        11.9610    2.0220   15.8560 C.ar  224  HIS224      0.0817
    110  ND1       12.8920    1.0080   15.7490 N.ar  224  HIS224     -0.2268
    111  CD2       11.1330    1.6660   16.8730 C.ar  224  HIS224      0.1154
    112  CE1       12.6440    0.0830   16.6630 C.ar  224  HIS224      0.1986
    113  NE2       11.5740    0.4500   17.3480 N.ar  224  HIS224     -0.2212
    114  N          9.9200    6.9100   19.6480 N.3   226  SER226     -0.1217
    115  CA         8.5680    7.4130   19.9120 C.3   226  SER226      0.1889
    116  C          8.4440    8.8930   19.5690 C.2   226  SER226      0.2288
    117  O          9.3870    9.6650   19.7680 O.2   226  SER226     -0.2866
    118  CB         8.1940    7.2100   21.3840 C.3   226  SER226      0.2089
    119  OG         8.3280    5.8510   21.7750 O.3   226  SER226     -0.2183
    120  N         -3.0500    8.3520   22.1990 N.3   238  ARG238     -0.1245
    121  CA        -2.4120    7.5280   21.1800 C.3   238  ARG238      0.1563
    122  C         -2.5050    6.0900   21.6790 C.2   238  ARG238      0.2260
    123  O         -1.9130    5.7480   22.7030 O.2   238  ARG238     -0.2867
    124  CB        -0.9650    7.9550   20.8870 C.3   238  ARG238      0.0307
    125  CG        -0.3690    7.1770   19.6780 C.3   238  ARG238      0.0489
    126  CD         0.5110    6.0140   20.1420 C.3   238  ARG238      0.2205
    127  NE         1.8500    6.4990   20.5100 N.pl3 238  ARG238     -0.0865
    128  CZ         2.9400    5.7360   20.6000 C.cat 238  ARG238      0.5346
    129  NH1        2.8950    4.4290   20.3340 N.pl3 238  ARG238      0.1354
    130  NH2        4.1050    6.2970   20.9020 N.pl3 238  ARG238      0.1354
    131  N          2.2410   -3.2210   19.5270 N.3   242  ASP242     -0.1239
    132  CA         3.3110   -3.6740   18.6590 C.3   242  ASP242      0.1674
    133  C          3.7840   -5.0440   19.0980 C.2   242  ASP242      0.2266
    134  O          3.9040   -5.3070   20.2920 O.2   242  ASP242     -0.2867
    135  CB         4.4670   -2.6540   18.6050 C.3   242  ASP242      0.1410
    136  CG         5.0030   -2.2780   19.9950 C.2   242  ASP242      0.3668
    137  OD1        4.4580   -1.3320   20.6090 O.co2 242  ASP242     -0.2456
    138  OD2        5.9650   -2.9310   20.4640 O.co2 242  ASP242     -0.2456
    139  N          6.1960   -8.6550   17.3080 N.3   244  ARG244     -0.1245
    140  CA         7.1640   -9.0240   16.2980 C.3   244  ARG244      0.1563
    141  C          6.7010  -10.3160   15.6540 C.2   244  ARG244      0.2260
    142  O          6.0580  -11.1540   16.3120 O.2   244  ARG244     -0.2867
    143  CB         8.5420   -9.1920   16.9130 C.3   244  ARG244      0.0307
    144  CG         9.1870   -7.8480   17.3390 C.3   244  ARG244      0.0489
    145  CD         8.8610   -7.4130   18.7890 C.3   244  ARG244      0.2205
    146  NE         9.0510   -5.9650   18.9020 N.pl3 244  ARG244     -0.0865
    147  CZ         8.1690   -5.1000   19.4090 C.cat 244  ARG244      0.5346
    148  NH1        8.4390   -3.8000   19.3910 N.pl3 244  ARG244      0.1354
    149  NH2        7.0250   -5.5170   19.9400 N.pl3 244  ARG244      0.1354
@<TRIPOS>BOND
     1    94    93    1
     2    94    95    1
     3    94    97    1
     4    95    96    2
     5    97    98    1
     6    98   100   ar
     7    98    99   ar
     8   100   102   ar
     9    64    63    2
    10    71    70    2
    11    99   101   ar
    12    61    62    1
    13    63    62    1
    14   102   103   ar
    15    89    88    2
    16    68    69    1
    17    62    65    1
    18    70    69    1
    19   101   103   ar
    20    78    80   ar
    21    78    75   ar
    22    88    87    1
    23    72    69    1
    24    72    73    1
    25    91    90    1
    26    80    81   ar
    27   108   105    1
    28   108   109    1
    29    65    66    1
    30    65    67    1
    31   104   105    1
    32   105   106    1
    33    75    73   ar
    34    75    77   ar
    35   141   140    1
    36   141   142    2
    37    73    74   ar
    38   110   109   ar
    39   110   112   ar
    40   109   111   ar
    41    87    90    1
    42    87    86    1
    43    92    90    1
    44    81    79   ar
    45    86    84   am
    46   140   143    1
    47   140   139    1
    48   112   113   ar
    49   106   107    2
    50    77    79   ar
    51    77    76   ar
    52   111   113   ar
    53    74    76   ar
    54   143   144    1
    55    34    33    2
    56    84    83    1
    57    84    85    2
    58    83    82    1
    59   144   145    1
    60    41    42    1
    61    45    46    1
    62    45    42    1
    63    33    32    1
    64    48    46   ar
    65    46    47   ar
    66    42    43    1
    67    43    44    2
    68   135   132    1
    69   135   136    1
    70   132   133    1
    71   132   131    1
    72   145   146    1
    73    31    32    1
    74   146   147    2
    75    32    35    1
    76   133   134    2
    77   148   147    1
    78   147   149    1
    79   116   117    2
    80   116   115    1
    81   114   115    1
    82   125   126    1
    83   125   124    1
    84   115   118    1
    85   136   138   ar
    86   136   137   ar
    87   126   127    1
    88    40    38   ar
    89    40    39   ar
    90    38    36   ar
    91    39    37   ar
    92    36    37   ar
    93    36    35    1
    94   129   128    1
    95   127   128    2
    96   128   130    1
    97   124   121    1
    98   121   122    1
    99   121   120    1
   100    29    28    1
   101   118   119    1
   102    49    50    1
   103    60    59    1
   104    58    59   ar
   105    58    56   ar
   106   122   123    2
   107    59    57   ar
   108    27    26    2
   109    56    54   ar
   110    51    50    1
   111    51    52    2
   112     8     7    1
   113     8     9    2
   114     7     6    1
   115    28    30    1
   116    28    25    1
   117    50    53    1
   118    26    25    1
   119    11     9    1
   120    57    55   ar
   121    54    55   ar
   122    54    53    1
   123     9    10    1
   124     5     6    1
   125     5     2    1
   126    25    24    1
   127     4     3    2
   128    19    21   ar
   129    19    17   ar
   130    21    22   ar
   131     1     2    1
   132     3     2    1
   133    15    14    2
   134    16    17    1
   135    16    13    1
   136    17    18   ar
   137    22    23    1
   138    22    20   ar
   139    12    13    1
   140    14    13    1
   141    18    20   ar
