@<TRIPOS>MOLECULE
tmp/2rdtA01.pdb
 143 138 0 0 0
SMALL
GASTEIGER

@<TRIPOS>ATOM
      1  N         24.8520    4.4720    5.4420 N.3    27  TYR27      -0.1241
      2  CA        25.8320    4.5280    6.5180 C.3    27  TYR27       0.1605
      3  C         25.3910    5.5200    7.5990 C.2    27  TYR27       0.2264
      4  O         25.3710    5.1950    8.7880 O.2    27  TYR27      -0.2867
      5  CB        27.2580    4.8280    6.0140 C.3    27  TYR27       0.0534
      6  CG        28.1190    5.2880    7.1660 C.ar   27  TYR27      -0.0201
      7  CD1       28.5480    4.3840    8.1600 C.ar   27  TYR27      -0.0009
      8  CD2       28.3940    6.6360    7.3400 C.ar   27  TYR27      -0.0009
      9  CE1       29.3040    4.8310    9.2740 C.ar   27  TYR27       0.0417
     10  CE2       29.1240    7.0920    8.4460 C.ar   27  TYR27       0.0417
     11  CZ        29.5690    6.1990    9.4050 C.ar   27  TYR27       0.1957
     12  OH        30.2910    6.6900   10.4910 O.3    27  TYR27      -0.2866
     13  N         31.4990   10.6750   12.6820 N.3    82  ALA82      -0.1231
     14  CA        32.6180   10.2900   11.8290 C.3    82  ALA82       0.1694
     15  C         32.4180   10.6890   10.3660 C.2    82  ALA82       0.2591
     16  O         31.2850   10.7570    9.8580 O.2    82  ALA82      -0.2718
     17  CB        32.8600    8.7700   11.9270 C.3    82  ALA82       0.0304
     18  N         33.5380   10.9810    9.7120 N.am   83  MET83      -0.1979
     19  CA        33.6230   11.0260    8.2700 C.3    83  MET83       0.1605
     20  C         32.6030   11.9760    7.6510 C.2    83  MET83       0.2287
     21  O         31.8720   11.6090    6.7220 O.2    83  MET83      -0.2864
     22  CB        33.4960    9.6040    7.7050 C.3    83  MET83       0.0413
     23  CG        34.5610    8.6530    8.2350 C.3    83  MET83       0.0598
     24  SD        34.1910    6.9680    7.7060 S.3    83  MET83      -0.1393
     25  CE        33.1580    6.3680    9.0430 C.3    83  MET83       0.0692
     26  N         36.9360   11.6130   16.9360 N.3   110  SER110     -0.1202
     27  CA        38.2870   11.0480   16.7390 C.3   110  SER110      0.2020
     28  C         38.4930   10.5060   15.3150 C.2   110  SER110      0.2619
     29  O         39.6240   10.4640   14.8200 O.2   110  SER110     -0.2717
     30  CB        38.5650    9.9150   17.7370 C.3   110  SER110      0.2103
     31  OG        38.8520   10.4210   19.0230 O.3   110  SER110     -0.2182
     32  N         37.4020   10.0800   14.6790 N.am  111  TRP111     -0.1961
     33  CA        37.4080    9.6220   13.2860 C.3   111  TRP111      0.1771
     34  C         37.0140   10.7450   12.3210 C.2   111  TRP111      0.2619
     35  O         36.2810   10.5120   11.3360 O.2   111  TRP111     -0.2715
     36  CB        36.4180    8.4800   13.0830 C.3   111  TRP111      0.0590
     37  CG        36.6320    7.2240   13.8560 C.ar  111  TRP111      0.0006
     38  CD1       35.7360    6.6320   14.7070 C.ar  111  TRP111      0.0946
     39  CD2       37.7780    6.3450   13.8080 C.ar  111  TRP111      0.0152
     40  NE1       36.2560    5.4490   15.1960 N.ar  111  TRP111     -0.2442
     41  CE2       37.5030    5.2530   14.6690 C.ar  111  TRP111      0.0810
     42  CE3       39.0070    6.3770   13.1200 C.ar  111  TRP111      0.0012
     43  CZ2       38.4050    4.2050   14.8660 C.ar  111  TRP111      0.0191
     44  CZ3       39.9180    5.3220   13.3120 C.ar  111  TRP111      0.0001
     45  CH2       39.6040    4.2510   14.1830 C.ar  111  TRP111      0.0015
     46  N         37.4860   11.9560   12.5980 N.am  112  ALA112     -0.1963
     47  CA        37.2350   13.0870   11.7080 C.3   112  ALA112      0.1728
     48  C         38.1030   12.9730   10.4560 C.2   112  ALA112      0.2616
     49  O         39.2150   12.4640   10.5110 O.2   112  ALA112     -0.2715
     50  CB        37.5000   14.3900   12.4150 C.3   112  ALA112      0.0334
     51  N         37.5590   13.4540    9.3410 N.am  113  THR113     -0.1951
     52  CA        38.2540   13.6270    8.0620 C.3   113  THR113      0.1897
     53  C         38.9410   14.9990    7.9740 C.2   113  THR113      0.2313
     54  O         39.3020   15.4620    6.8820 O.2   113  THR113     -0.2863
     55  CB        37.2580   13.4600    6.8660 C.3   113  THR113      0.1794
     56  OG1       35.9360   13.9070    7.2480 O.3   113  THR113     -0.2208
     57  CG2       37.1820   11.9910    6.4320 C.3   113  THR113      0.0378
     58  N         38.1180    8.2520   21.3660 N.3   133  TYR133     -0.1241
     59  CA        38.1530    6.8170   21.5660 C.3   133  TYR133      0.1605
     60  C         39.4640    6.4180   22.2200 C.2   133  TYR133      0.2264
     61  O         40.5530    6.9460   21.8720 O.2   133  TYR133     -0.2867
     62  CB        37.9940    6.0900   20.2220 C.3   133  TYR133      0.0534
     63  CG        36.5640    6.0060   19.7570 C.ar  133  TYR133     -0.0201
     64  CD1       35.6120    5.3120   20.5060 C.ar  133  TYR133     -0.0009
     65  CD2       36.1590    6.6040   18.5640 C.ar  133  TYR133     -0.0009
     66  CE1       34.3040    5.2320   20.0810 C.ar  133  TYR133      0.0417
     67  CE2       34.8530    6.5170   18.1290 C.ar  133  TYR133      0.0417
     68  CZ        33.9360    5.8430   18.9020 C.ar  133  TYR133      0.1957
     69  OH        32.6450    5.7610   18.4910 O.3   133  TYR133     -0.2866
     70  N         31.4190    1.7110   22.7830 N.3   162  THR162     -0.1218
     71  CA        31.9170    1.1460   21.5320 C.3   162  THR162      0.1862
     72  C         33.2130    0.3100   21.6950 C.2   162  THR162      0.2287
     73  O         34.2010    0.5820   21.0380 O.2   162  THR162     -0.2866
     74  CB        32.0760    2.2520   20.4800 C.3   162  THR162      0.1770
     75  OG1       30.8560    2.9920   20.4090 O.3   162  THR162     -0.2211
     76  CG2       32.4190    1.6900   19.0820 C.3   162  THR162      0.0375
     77  N         32.3350   -2.1850   17.1800 N.3   165  LEU165     -0.1245
     78  CA        31.2550   -1.5190   16.4390 C.3   165  LEU165      0.1561
     79  C         30.0170   -2.3900   16.3730 C.2   165  LEU165      0.2260
     80  O         30.1160   -3.6080   16.2290 O.2   165  LEU165     -0.2867
     81  CB        31.6820   -1.2070   14.9920 C.3   165  LEU165      0.0270
     82  CG        31.0060   -0.0110   14.3310 C.3   165  LEU165      0.0019
     83  CD1       31.3990    1.2810   15.0490 C.3   165  LEU165      0.0001
     84  CD2       31.4230    0.0450   12.8350 C.3   165  LEU165      0.0001
     85  N         25.4580   -2.8750   11.6990 N.3   168  ARG168     -0.1245
     86  CA        24.5000   -2.0910   10.9230 C.3   168  ARG168      0.1563
     87  C         24.3910   -2.8180    9.5930 C.2   168  ARG168      0.2260
     88  O         25.3250   -2.8360    8.7840 O.2   168  ARG168     -0.2867
     89  CB        24.9560   -0.6180   10.7410 C.3   168  ARG168      0.0307
     90  CG        25.2260    0.1600   12.0660 C.3   168  ARG168      0.0489
     91  CD        26.7080    0.1520   12.4490 C.3   168  ARG168      0.2205
     92  NE        27.0800    0.8380   13.7150 N.pl3 168  ARG168     -0.0865
     93  CZ        27.7420    1.9960   13.7900 C.cat 168  ARG168      0.5346
     94  NH1       28.0410    2.6730   12.6910 N.pl3 168  ARG168      0.1354
     95  NH2       28.0890    2.5100   14.9760 N.pl3 168  ARG168      0.1354
     96  N         33.7620   -1.3060    8.1300 N.3   177  LEU177     -0.1245
     97  CA        34.0520   -0.4240    9.2620 C.3   177  LEU177      0.1561
     98  C         34.1670   -1.1720   10.5820 C.2   177  LEU177      0.2260
     99  O         34.9960   -0.8180   11.4230 O.2   177  LEU177     -0.2867
    100  CB        33.0120    0.6950    9.3810 C.3   177  LEU177      0.0270
    101  CG        32.8670    1.6700    8.2010 C.3   177  LEU177      0.0019
    102  CD1       31.8580    2.7580    8.5360 C.3   177  LEU177      0.0001
    103  CD2       34.2160    2.2800    7.7700 C.3   177  LEU177      0.0001
    104  N         37.7240   -2.5650   10.8230 N.3   180  TYR180     -0.1227
    105  CA        38.6840   -1.4800   11.0610 C.3   180  TYR180      0.1736
    106  C         38.6750   -0.9940   12.5050 C.2   180  TYR180      0.2595
    107  O         39.7390   -0.7610   13.0880 O.2   180  TYR180     -0.2718
    108  CB        38.4800   -0.3200   10.0700 C.3   180  TYR180      0.0548
    109  CG        39.0290   -0.6400    8.6860 C.ar  180  TYR180     -0.0200
    110  CD1       40.4130   -0.7030    8.4630 C.ar  180  TYR180     -0.0009
    111  CD2       38.1730   -0.9080    7.6070 C.ar  180  TYR180     -0.0009
    112  CE1       40.9310   -1.0150    7.1980 C.ar  180  TYR180      0.0417
    113  CE2       38.6850   -1.2180    6.3290 C.ar  180  TYR180      0.0417
    114  CZ        40.0630   -1.2640    6.1410 C.ar  180  TYR180      0.1957
    115  OH        40.5950   -1.5650    4.9020 O.3   180  TYR180     -0.2866
    116  N         37.4790   -0.8680   13.0810 N.am  181  VAL181     -0.1980
    117  CA        37.3300   -0.5020   14.4880 C.3   181  VAL181      0.1595
    118  C         37.8810   -1.5720   15.4120 C.2   181  VAL181      0.2287
    119  O         38.4810   -1.2470   16.4320 O.2   181  VAL181     -0.2864
    120  CB        35.8420   -0.2380   14.8800 C.3   181  VAL181      0.0276
    121  CG1       35.6490   -0.3220   16.3910 C.3   181  VAL181      0.0022
    122  CG2       35.3850    1.0970   14.3590 C.3   181  VAL181      0.0022
    123  N         24.3840    5.8590   21.2890 N.3   232  HIS232     -0.1241
    124  CA        25.2340    6.0210   20.1150 C.3   232  HIS232      0.1621
    125  C         24.3310    6.1550   18.8850 C.2   232  HIS232      0.2264
    126  O         24.6150    5.5950   17.8270 O.2   232  HIS232     -0.2867
    127  CB        26.1710    4.8030   19.9730 C.3   232  HIS232      0.0745
    128  CG        27.4370    5.0790   19.2060 C.ar  232  HIS232      0.0817
    129  ND1       28.6770    5.1090   19.8100 N.ar  232  HIS232     -0.2268
    130  CD2       27.6540    5.3310   17.8920 C.ar  232  HIS232      0.1154
    131  CE1       29.6000    5.3810   18.9020 C.ar  232  HIS232      0.1986
    132  NE2       29.0060    5.5110   17.7300 N.ar  232  HIS232     -0.2212
    133  N         23.0640    2.7890   17.1720 N.3   235  ARG235     -0.1245
    134  CA        23.9780    2.1590   16.2090 C.3   235  ARG235      0.1563
    135  C         24.8820    1.1130   16.8510 C.2   235  ARG235      0.2260
    136  O         25.6400    0.4310   16.1460 O.2   235  ARG235     -0.2867
    137  CB        24.8460    3.2160   15.5280 C.3   235  ARG235      0.0307
    138  CG        24.0910    4.0770   14.5200 C.3   235  ARG235      0.0489
    139  CD        24.7570    5.4370   14.3600 C.3   235  ARG235      0.2205
    140  NE        25.9360    5.4590   13.4730 N.pl3 235  ARG235     -0.0865
    141  CZ        25.8620    5.4670   12.1430 C.cat 235  ARG235      0.5346
    142  NH1       24.6850    5.4220   11.5340 N.pl3 235  ARG235      0.1354
    143  NH2       26.9650    5.5320   11.4120 N.pl3 235  ARG235      0.1354
@<TRIPOS>BOND
     1   115   114    1
     2     1     2    1
     3     5     2    1
     4     5     6    1
     5   114   113   ar
     6   114   112   ar
     7   113   111   ar
     8    57    55    1
     9     2     3    1
    10    21    20    2
    11    55    56    1
    12    55    52    1
    13    54    53    2
    14     6     8   ar
    15     6     7   ar
    16   112   110   ar
    17     8    10   ar
    18     3     4    2
    19   111   109   ar
    20    20    19    1
    21    22    23    1
    22    22    19    1
    23    24    23    1
    24    24    25    1
    25   103   101    1
    26    53    52    1
    27    52    51    1
    28    96    97    1
    29     7     9   ar
    30   101   102    1
    31   101   100    1
    32    19    18    1
    33    10    11   ar
    34   110   109   ar
    35   109   108    1
    36    88    87    2
    37    97   100    1
    38    97    98    1
    39     9    11   ar
    40    51    48   am
    41    11    12    1
    42    87    86    1
    43    18    15   am
    44    16    15    2
    45   108   105    1
    46    15    14    1
    47    48    49    2
    48    48    47    1
    49    98    99    2
    50    89    86    1
    51    89    90    1
    52   104   105    1
    53    86    85    1
    54   105   106    1
    55    35    34    2
    56   143   141    1
    57   142   141    1
    58    47    50    1
    59    47    46    1
    60    14    17    1
    61    14    13    1
    62    90    91    1
    63   141   140    2
    64    34    46   am
    65    34    33    1
    66    91    92    1
    67   106   116   am
    68   106   107    2
    69    94    93    1
    70    84    82    1
    71   116   117    1
    72    36    33    1
    73    36    37    1
    74    42    44   ar
    75    42    39   ar
    76    33    32    1
    77    44    45   ar
    78   140   139    1
    79    92    93    2
    80    93    95    1
    81    39    37   ar
    82    39    41   ar
    83    37    38   ar
    84    45    43   ar
    85    82    81    1
    86    82    83    1
    87   122   120    1
    88   139   138    1
    89   117   120    1
    90   117   118    1
    91   138   137    1
    92    41    43   ar
    93    41    40   ar
    94    32    28   am
    95    38    40   ar
    96    29    28    2
    97   120   121    1
    98    81    78    1
    99    28    27    1
   100   118   119    2
   101   137   134    1
   102   136   135    2
   103   134   135    1
   104   134   133    1
   105    80    79    2
   106    79    78    1
   107    78    77    1
   108    27    26    1
   109    27    30    1
   110   132   130   ar
   111   132   131   ar
   112    30    31    1
   113   126   125    2
   114   130   128   ar
   115    67    65   ar
   116    67    68   ar
   117    69    68    1
   118    65    63   ar
   119   125   124    1
   120    68    66   ar
   121   131   129   ar
   122    76    74    1
   123   128   129   ar
   124   128   127    1
   125    63    62    1
   126    63    64   ar
   127   127   124    1
   128    66    64   ar
   129   124   123    1
   130    62    59    1
   131    75    74    1
   132    74    71    1
   133    73    72    2
   134    58    59    1
   135    71    72    1
   136    71    70    1
   137    59    60    1
   138    61    60    2
