@<TRIPOS>MOLECULE
tmp/2rdtA00.pdb
 215 207 0 0 0
SMALL
GASTEIGER

@<TRIPOS>ATOM
      1  N         24.8520    4.4720    5.4420 N.3    27  TYR27      -0.1227
      2  CA        25.8320    4.5280    6.5180 C.3    27  TYR27       0.1736
      3  C         25.3910    5.5200    7.5990 C.2    27  TYR27       0.2595
      4  O         25.3710    5.1950    8.7880 O.2    27  TYR27      -0.2718
      5  CB        27.2580    4.8280    6.0140 C.3    27  TYR27       0.0548
      6  CG        28.1190    5.2880    7.1660 C.ar   27  TYR27      -0.0200
      7  CD1       28.5480    4.3840    8.1600 C.ar   27  TYR27      -0.0009
      8  CD2       28.3940    6.6360    7.3400 C.ar   27  TYR27      -0.0009
      9  CE1       29.3040    4.8310    9.2740 C.ar   27  TYR27       0.0417
     10  CE2       29.1240    7.0920    8.4460 C.ar   27  TYR27       0.0417
     11  CZ        29.5690    6.1990    9.4050 C.ar   27  TYR27       0.1957
     12  OH        30.2910    6.6900   10.4910 O.3    27  TYR27      -0.2866
     13  N         24.9830    6.7060    7.1650 N.am   28  TYR28      -0.1976
     14  CA        24.4960    7.7650    8.0580 C.3    28  TYR28       0.1639
     15  C         23.1900    7.4790    8.7890 C.2    28  TYR28       0.2290
     16  O         23.0920    7.7390    9.9860 O.2    28  TYR28      -0.2864
     17  CB        24.3260    9.0380    7.2530 C.3    28  TYR28       0.0560
     18  CG        25.6170    9.7020    6.8350 C.ar   28  TYR28      -0.0198
     19  CD1       26.7110    9.7790    7.7170 C.ar   28  TYR28      -0.0009
     20  CD2       25.7320   10.3160    5.5770 C.ar   28  TYR28      -0.0009
     21  CE1       27.8960   10.4070    7.3450 C.ar   28  TYR28       0.0417
     22  CE2       26.9220   10.9620    5.2040 C.ar   28  TYR28       0.0417
     23  CZ        27.9880   10.9900    6.0900 C.ar   28  TYR28       0.1957
     24  OH        29.1490   11.6420    5.7400 O.3    28  TYR28      -0.2866
     25  N         14.1900    5.8280   19.7270 N.3    41  ASN41      -0.1240
     26  CA        14.7560    7.1410   20.0630 C.3    41  ASN41       0.1653
     27  C         13.7870    8.2880   19.7080 C.2    41  ASN41       0.2266
     28  O         13.7080    9.2980   20.4320 O.2    41  ASN41      -0.2867
     29  CB        16.1090    7.3810   19.3820 C.3    41  ASN41       0.1155
     30  CG        17.2730    6.8120   20.1390 C.2    41  ASN41       0.2627
     31  OD1       17.1440    6.3150   21.2750 O.2    41  ASN41      -0.2716
     32  ND2       18.4480    6.8400   19.4880 N.am   41  ASN41      -0.0877
     33  N         26.9710   16.9100   18.0420 N.3    79  GLY79      -0.1210
     34  CA        27.6320   15.6670   18.4720 C.3    79  GLY79       0.1956
     35  C         28.6130   15.1350   17.4420 C.2    79  GLY79       0.2612
     36  O         28.5140   15.4730   16.2580 O.2    79  GLY79      -0.2717
     37  N         29.5640   14.3160   17.8880 N.am   80  ALA80      -0.1965
     38  CA        30.5350   13.6790   16.9950 C.3    80  ALA80       0.1728
     39  C         29.9080   12.7570   15.9590 C.2    80  ALA80       0.2617
     40  O         29.1710   11.8220   16.3020 O.2    80  ALA80      -0.2715
     41  CB        31.5770   12.8960   17.8270 C.3    80  ALA80       0.0334
     42  N         30.1670   13.0190   14.6860 N.am   81  THR81      -0.1937
     43  CA        29.7810   12.0800   13.6410 C.3    81  THR81       0.2028
     44  C         30.9730   11.8980   12.7220 C.2    81  THR81       0.2642
     45  O         31.4150   12.8550   12.0910 O.2    81  THR81      -0.2714
     46  CB        28.5540   12.5440   12.8180 C.3    81  THR81       0.1808
     47  OG1       28.7450   13.9020   12.3710 O.3    81  THR81      -0.2208
     48  CG2       27.2720   12.4480   13.6280 C.3    81  THR81       0.0379
     49  N         31.4990   10.6750   12.6820 N.am   82  ALA82      -0.1977
     50  CA        32.6180   10.2900   11.8290 C.3    82  ALA82       0.1597
     51  C         32.4180   10.6890   10.3660 C.2    82  ALA82       0.2287
     52  O         31.2850   10.7570    9.8580 O.2    82  ALA82      -0.2864
     53  CB        32.8600    8.7700   11.9270 C.3    82  ALA82       0.0319
     54  N         34.6620   14.2790   16.2430 N.3   109  SER109     -0.1217
     55  CA        34.9660   12.8430   16.1910 C.3   109  SER109      0.1889
     56  C         36.4790   12.6150   16.1900 C.2   109  SER109      0.2288
     57  O         37.2140   13.3440   15.5210 O.2   109  SER109     -0.2866
     58  CB        34.3680   12.2430   14.9080 C.3   109  SER109      0.2089
     59  OG        34.7020   10.8750   14.7500 O.3   109  SER109     -0.2183
     60  N         37.4020   10.0800   14.6790 N.3   111  TRP111     -0.1241
     61  CA        37.4080    9.6220   13.2860 C.3   111  TRP111      0.1605
     62  C         37.0140   10.7450   12.3210 C.2   111  TRP111      0.2264
     63  O         36.2810   10.5120   11.3360 O.2   111  TRP111     -0.2867
     64  CB        36.4180    8.4800   13.0830 C.3   111  TRP111      0.0550
     65  CG        36.6320    7.2240   13.8560 C.ar  111  TRP111      0.0003
     66  CD1       35.7360    6.6320   14.7070 C.ar  111  TRP111      0.0946
     67  CD2       37.7780    6.3450   13.8080 C.ar  111  TRP111      0.0152
     68  NE1       36.2560    5.4490   15.1960 N.ar  111  TRP111     -0.2442
     69  CE2       37.5030    5.2530   14.6690 C.ar  111  TRP111      0.0810
     70  CE3       39.0070    6.3770   13.1200 C.ar  111  TRP111      0.0012
     71  CZ2       38.4050    4.2050   14.8660 C.ar  111  TRP111      0.0191
     72  CZ3       39.9180    5.3220   13.3120 C.ar  111  TRP111      0.0001
     73  CH2       39.6040    4.2510   14.1830 C.ar  111  TRP111      0.0015
     74  N         35.8280   14.3700   20.8840 N.3   131  GLN131     -0.1245
     75  CA        35.2980   13.0580   21.1900 C.3   131  GLN131      0.1566
     76  C         36.4520   12.0880   21.0260 C.2   131  GLN131      0.2260
     77  O         37.0970   12.0100   19.9710 O.2   131  GLN131     -0.2867
     78  CB        34.1100   12.6850   20.3190 C.3   131  GLN131      0.0367
     79  CG        33.6500   11.2170   20.5320 C.3   131  GLN131      0.0905
     80  CD        34.4390   10.2030   19.7020 C.2   131  GLN131      0.2608
     81  OE1       34.5850   10.3670   18.4960 O.2   131  GLN131     -0.2717
     82  NE2       34.9420    9.1360   20.3550 N.am  131  GLN131     -0.0878
     83  N         38.1180    8.2520   21.3660 N.3   133  TYR133     -0.1241
     84  CA        38.1530    6.8170   21.5660 C.3   133  TYR133      0.1605
     85  C         39.4640    6.4180   22.2200 C.2   133  TYR133      0.2264
     86  O         40.5530    6.9460   21.8720 O.2   133  TYR133     -0.2867
     87  CB        37.9940    6.0900   20.2220 C.3   133  TYR133      0.0534
     88  CG        36.5640    6.0060   19.7570 C.ar  133  TYR133     -0.0201
     89  CD1       35.6120    5.3120   20.5060 C.ar  133  TYR133     -0.0009
     90  CD2       36.1590    6.6040   18.5640 C.ar  133  TYR133     -0.0009
     91  CE1       34.3040    5.2320   20.0810 C.ar  133  TYR133      0.0417
     92  CE2       34.8530    6.5170   18.1290 C.ar  133  TYR133      0.0417
     93  CZ        33.9360    5.8430   18.9020 C.ar  133  TYR133      0.1957
     94  OH        32.6450    5.7610   18.4910 O.3   133  TYR133     -0.2866
     95  N         34.0250    8.1970   24.6110 N.3   159  THR159     -0.1218
     96  CA        32.9630    7.2790   24.2130 C.3   159  THR159      0.1862
     97  C         33.2310    5.8890   24.8060 C.2   159  THR159      0.2287
     98  O         34.3180    5.3170   24.6040 O.2   159  THR159     -0.2866
     99  CB        32.8010    7.2010   22.6870 C.3   159  THR159      0.1770
    100  OG1       32.5250    8.5060   22.1740 O.3   159  THR159     -0.2211
    101  CG2       31.6460    6.3140   22.3500 C.3   159  THR159      0.0375
    102  N         30.5300    9.4740   27.4820 N.3   208  LYS208     -0.1245
    103  CA        29.4950    9.3680   26.4610 C.3   208  LYS208      0.1561
    104  C         29.1000    7.9020   26.2240 C.2   208  LYS208      0.2260
    105  O         29.9220    7.0350   25.9100 O.2   208  LYS208     -0.2867
    106  CB        30.0010   10.0290   25.1860 C.3   208  LYS208      0.0271
    107  CG        29.1600    9.8560   23.8890 C.3   208  LYS208      0.0035
    108  CD        29.8000   10.6970   22.7940 C.3   208  LYS208      0.0206
    109  CE        28.9570   10.7380   21.4730 C.3   208  LYS208      0.1093
    110  NZ        28.7780    9.3410   20.9150 N.3   208  LYS208     -0.1314
    111  N         23.4470    8.3540   26.0750 N.3   230  SER230     -0.1217
    112  CA        23.5660    8.0930   24.6490 C.3   230  SER230      0.1889
    113  C         23.5100    6.5830   24.4320 C.2   230  SER230      0.2288
    114  O         24.1110    5.8090   25.2080 O.2   230  SER230     -0.2866
    115  CB        24.9220    8.6110   24.1560 C.3   230  SER230      0.2089
    116  OG        25.0580    8.4660   22.7540 O.3   230  SER230     -0.2183
    117  N         24.3840    5.8590   21.2890 N.3   232  HIS232     -0.1226
    118  CA        25.2340    6.0210   20.1150 C.3   232  HIS232      0.1752
    119  C         24.3310    6.1550   18.8850 C.2   232  HIS232      0.2596
    120  O         24.6150    5.5950   17.8270 O.2   232  HIS232     -0.2718
    121  CB        26.1710    4.8030   19.9730 C.3   232  HIS232      0.0759
    122  CG        27.4370    5.0790   19.2060 C.ar  232  HIS232      0.0818
    123  ND1       28.6770    5.1090   19.8100 N.ar  232  HIS232     -0.2268
    124  CD2       27.6540    5.3310   17.8920 C.ar  232  HIS232      0.1154
    125  CE1       29.6000    5.3810   18.9020 C.ar  232  HIS232      0.1986
    126  NE2       29.0060    5.5110   17.7300 N.ar  232  HIS232     -0.2212
    127  N         23.2320    6.8930   19.0360 N.am  233  GLY233     -0.1957
    128  CA        22.2240    6.9650   17.9660 C.3   233  GLY233      0.1869
    129  C         21.6640    5.6310   17.4980 C.2   233  GLY233      0.2309
    130  O         21.3800    5.4600   16.3130 O.2   233  GLY233     -0.2863
    131  N         23.0640    2.7890   17.1720 N.3   235  ARG235     -0.1245
    132  CA        23.9780    2.1590   16.2090 C.3   235  ARG235      0.1563
    133  C         24.8820    1.1130   16.8510 C.2   235  ARG235      0.2260
    134  O         25.6400    0.4310   16.1460 O.2   235  ARG235     -0.2867
    135  CB        24.8460    3.2160   15.5280 C.3   235  ARG235      0.0307
    136  CG        24.0910    4.0770   14.5200 C.3   235  ARG235      0.0489
    137  CD        24.7570    5.4370   14.3600 C.3   235  ARG235      0.2205
    138  NE        25.9360    5.4590   13.4730 N.pl3 235  ARG235     -0.0865
    139  CZ        25.8620    5.4670   12.1430 C.cat 235  ARG235      0.5346
    140  NH1       24.6850    5.4220   11.5340 N.pl3 235  ARG235      0.1354
    141  NH2       26.9650    5.5320   11.4120 N.pl3 235  ARG235      0.1354
    142  N         21.7850   12.6550   23.8210 N.3   263  ASP263     -0.1225
    143  CA        21.6470   12.6570   22.3530 C.3   263  ASP263      0.1805
    144  C         20.8310   11.4490   21.9620 C.2   263  ASP263      0.2598
    145  O         20.5570   10.6010   22.8050 O.2   263  ASP263     -0.2718
    146  CB        22.9930   12.7350   21.6130 C.3   263  ASP263      0.1424
    147  CG        23.8550   11.4880   21.7610 C.2   263  ASP263      0.3668
    148  OD1       23.3650   10.3390   22.0350 O.co2 263  ASP263     -0.2456
    149  OD2       25.0720   11.6580   21.5440 O.co2 263  ASP263     -0.2456
    150  N         20.4170   11.3820   20.7050 N.am  264  GLY264     -0.1942
    151  CA        19.6240   10.2580   20.2490 C.3   264  GLY264      0.2014
    152  C         18.1960   10.6350   19.9310 C.2   264  GLY264      0.2639
    153  O         17.3400   10.6380   20.8180 O.2   264  GLY264     -0.2714
    154  N         17.9430   10.9830   18.6660 N.am  265  GLY265     -0.1939
    155  CA        16.5880   11.2180   18.2090 C.3   265  GLY265      0.2014
    156  C         16.0890   12.6340   18.3620 C.2   265  GLY265      0.2639
    157  O         14.8980   12.8740   18.1740 O.2   265  GLY265     -0.2714
    158  N         16.9890   13.5750   18.6490 N.am  266  VAL266     -0.1963
    159  CA        16.6160   14.9860   18.6830 C.3   266  VAL266      0.1727
    160  C         16.4340   15.4690   17.2490 C.2   266  VAL266      0.2616
    161  O         17.3640   15.4110   16.4470 O.2   266  VAL266     -0.2715
    162  CB        17.6380   15.8690   19.3900 C.3   266  VAL266      0.0290
    163  CG1       17.2210   17.3290   19.2800 C.3   266  VAL266      0.0023
    164  CG2       17.8070   15.4480   20.8970 C.3   266  VAL266      0.0023
    165  N         15.2250   15.9360   16.9450 N.am  267  ARG267     -0.1977
    166  CA        14.8510   16.3330   15.5670 C.3   267  ARG267      0.1597
    167  C         14.1130   17.6780   15.5980 C.2   267  ARG267      0.2287
    168  O         14.0390   18.3810   14.5780 O.2   267  ARG267     -0.2864
    169  CB        13.9660   15.2620   14.9030 C.3   267  ARG267      0.0334
    170  CG        14.5510   13.8410   14.8180 C.3   267  ARG267      0.0492
    171  CD        15.7910   13.7830   13.9190 C.3   267  ARG267      0.2205
    172  NE        16.4170   12.4550   13.8840 N.pl3 267  ARG267     -0.0865
    173  CZ        17.5120   12.1080   14.5630 C.cat 267  ARG267      0.5346
    174  NH1       18.1190   12.9690   15.3970 N.pl3 267  ARG267      0.1354
    175  NH2       17.9750   10.8750   14.4420 N.pl3 267  ARG267      0.1354
    176  N         22.6940   16.9790   22.2000 N.3   284  PHE284     -0.1227
    177  CA        23.5750   16.9150   21.0450 C.3   284  PHE284      0.1736
    178  C         22.8250   16.3070   19.8880 C.2   284  PHE284      0.2595
    179  O         21.9950   15.3940   20.0580 O.2   284  PHE284     -0.2718
    180  CB        24.8520   16.1110   21.3610 C.3   284  PHE284      0.0547
    181  CG        25.7310   16.7780   22.3700 C.ar  284  PHE284     -0.0202
    182  CD1       26.8590   17.5130   21.9680 C.ar  284  PHE284     -0.0042
    183  CD2       25.4160   16.7150   23.7290 C.ar  284  PHE284     -0.0042
    184  CE1       27.6710   18.1660   22.9240 C.ar  284  PHE284     -0.0003
    185  CE2       26.2160   17.3710   24.6750 C.ar  284  PHE284     -0.0003
    186  CZ        27.3500   18.0870   24.2550 C.ar  284  PHE284     -0.0000
    187  N         23.1020   16.8310   18.7070 N.am  285  VAL285     -0.1966
    188  CA        22.5290   16.2680   17.4910 C.3   285  VAL285      0.1727
    189  C         23.6180   15.6100   16.6520 C.2   285  VAL285      0.2617
    190  O         24.7080   16.1840   16.4510 O.2   285  VAL285     -0.2715
    191  CB        21.7650   17.3210   16.6370 C.3   285  VAL285      0.0290
    192  CG1       20.3630   17.4630   17.1840 C.3   285  VAL285      0.0023
    193  CG2       22.4780   18.6810   16.6220 C.3   285  VAL285      0.0023
    194  N         23.3300   14.4030   16.1910 N.am  286  GLY286     -0.1940
    195  CA        24.2390   13.7070   15.2780 C.3   286  GLY286      0.2014
    196  C         23.8070   13.8430   13.8250 C.2   286  GLY286      0.2638
    197  O         24.2960   14.7050   13.0910 O.2   286  GLY286     -0.2714
    198  N         22.8770   12.9990   13.4140 N.am  287  ARG287     -0.1977
    199  CA        22.4180   12.9500   12.0170 C.3   287  ARG287      0.1597
    200  C         21.9500   14.2550   11.3650 C.2   287  ARG287      0.2287
    201  O         22.2990   14.5000   10.2020 O.2   287  ARG287     -0.2864
    202  CB        21.3490   11.8540   11.8290 C.3   287  ARG287      0.0334
    203  CG        21.8950   10.4570   12.0240 C.3   287  ARG287      0.0492
    204  CD        20.8120    9.4450   11.9100 C.3   287  ARG287      0.2205
    205  NE        21.2870    8.0990   12.2110 N.pl3 287  ARG287     -0.0865
    206  CZ        21.2530    7.5290   13.4160 C.cat 287  ARG287      0.5346
    207  NH1       20.7760    8.1790   14.4600 N.pl3 287  ARG287      0.1354
    208  NH2       21.6560    6.2820   13.5620 N.pl3 287  ARG287      0.1354
    209  N         24.6910   16.0400    9.5980 N.3   290  VAL290     -0.1245
    210  CA        25.1530   15.4040    8.3630 C.3   290  VAL290      0.1561
    211  C         24.1950   15.7180    7.2090 C.2   290  VAL290      0.2260
    212  O         24.6370   15.9760    6.0830 O.2   290  VAL290     -0.2867
    213  CB        25.2890   13.8570    8.5150 C.3   290  VAL290      0.0252
    214  CG1       25.5700   13.2400    7.1760 C.3   290  VAL290      0.0019
    215  CG2       26.3830   13.4810    9.5360 C.3   290  VAL290      0.0019
@<TRIPOS>BOND
     1    22    20   ar
     2    22    23   ar
     3     1     2    1
     4    20    18   ar
     5    24    23    1
     6     5     2    1
     7     5     6    1
     8   212   211    2
     9    23    21   ar
    10     2     3    1
    11    18    17    1
    12    18    19   ar
    13    13     3   am
    14    13    14    1
    15     6     8   ar
    16     6     7   ar
    17   214   213    1
    18   211   210    1
    19    17    14    1
    20     8    10   ar
    21    21    19   ar
    22     3     4    2
    23    14    15    1
    24     7     9   ar
    25   210   213    1
    26   210   209    1
    27    10    11   ar
    28   213   215    1
    29    15    16    2
    30     9    11   ar
    31    11    12    1
    32    52    51    2
    33   201   200    2
    34    51    50    1
    35    63    62    2
    36   200   199    1
    37   141   139    1
    38   140   139    1
    39    50    53    1
    40    50    49    1
    41   202   199    1
    42   202   203    1
    43   204   203    1
    44   204   205    1
    45   199   198    1
    46    45    44    2
    47   139   138    2
    48   205   206    2
    49    62    61    1
    50    47    46    1
    51    49    44   am
    52    44    43    1
    53    46    48    1
    54    46    43    1
    55    64    61    1
    56    64    65    1
    57   197   196    2
    58    70    72   ar
    59    70    67   ar
    60    61    60    1
    61    72    73   ar
    62   198   196   am
    63   206   208    1
    64   206   207    1
    65   138   137    1
    66    43    42    1
    67    67    65   ar
    68    67    69   ar
    69   196   195    1
    70    65    66   ar
    71   172   171    1
    72   172   173    2
    73   171   170    1
    74    73    71   ar
    75   137   136    1
    76   175   173    1
    77   136   135    1
    78   173   174    1
    79   168   167    2
    80    69    71   ar
    81    69    68   ar
    82    42    39   am
    83    66    68   ar
    84    59    58    1
    85   170   169    1
    86   169   166    1
    87    58    55    1
    88   195   194    1
    89    57    56    2
    90   135   132    1
    91   166   167    1
    92   166   165    1
    93    39    40    2
    94    39    38    1
    95   134   133    2
    96    56    55    1
    97   194   189   am
    98    55    54    1
    99   132   133    1
   100   132   131    1
   101    36    35    2
   102   130   129    2
   103   161   160    2
   104   190   189    2
   105   193   191    1
   106   191   192    1
   107   191   188    1
   108   189   188    1
   109   165   160   am
   110    38    41    1
   111    38    37    1
   112   160   159    1
   113    35    37   am
   114    35    34    1
   115   188   187    1
   116   129   128    1
   117   126   124   ar
   118   126   125   ar
   119   120   119    2
   120   124   122   ar
   121   128   127    1
   122    33    34    1
   123    92    90   ar
   124    92    93   ar
   125   157   156    2
   126   155   156    1
   127   155   154    1
   128   156   158   am
   129    94    93    1
   130    81    80    2
   131    90    88   ar
   132   158   159    1
   133   154   152   am
   134   159   162    1
   135   187   178   am
   136   119   127   am
   137   119   118    1
   138   125   123   ar
   139    93    91   ar
   140   122   123   ar
   141   122   121    1
   142   163   162    1
   143    29    26    1
   144    29    30    1
   145   162   164    1
   146    32    30   am
   147    80    82   am
   148    80    79    1
   149    27    26    1
   150    27    28    2
   151    25    26    1
   152    88    87    1
   153    88    89   ar
   154   178   179    2
   155   178   177    1
   156   152   151    1
   157   152   153    2
   158    77    76    2
   159   121   118    1
   160    91    89   ar
   161   118   117    1
   162    30    31    2
   163    87    84    1
   164   151   150    1
   165    78    79    1
   166    78    75    1
   167   150   144   am
   168    74    75    1
   169   110   109    1
   170    76    75    1
   171   177   180    1
   172   177   176    1
   173   180   181    1
   174    83    84    1
   175   109   108    1
   176   149   147   ar
   177    84    85    1
   178   146   147    1
   179   146   143    1
   180   147   148   ar
   181    86    85    2
   182   144   143    1
   183   144   145    2
   184   182   181   ar
   185   182   184   ar
   186   100    99    1
   187   101    99    1
   188   143   142    1
   189   181   183   ar
   190    99    96    1
   191   116   115    1
   192   108   107    1
   193   184   186   ar
   194   183   185   ar
   195   107   106    1
   196   115   112    1
   197    96    95    1
   198    96    97    1
   199   186   185   ar
   200   113   112    1
   201   113   114    2
   202    98    97    2
   203   112   111    1
   204   106   103    1
   205   105   104    2
   206   104   103    1
   207   103   102    1
