@<TRIPOS>MOLECULE
tmp/2refA00.pdb
 232 226 0 0 0
SMALL
GASTEIGER

@<TRIPOS>ATOM
      1  N         29.1990    0.0660   -3.2440 N.3    28  TRP28      -0.1241
      2  CA        28.9730    1.3950   -3.7920 C.3    28  TRP28       0.1605
      3  C         27.5710    1.5650   -4.3010 C.2    28  TRP28       0.2264
      4  O         26.9970    0.6340   -4.8680 O.2    28  TRP28      -0.2867
      5  CB        29.9330    1.6510   -4.9490 C.3    28  TRP28       0.0550
      6  CG        31.3510    1.7280   -4.5290 C.ar   28  TRP28       0.0003
      7  CD1       32.3240    0.7990   -4.7470 C.ar   28  TRP28       0.0946
      8  CD2       31.9600    2.7850   -3.7870 C.ar   28  TRP28       0.0152
      9  NE1       33.5070    1.2160   -4.1970 N.ar   28  TRP28      -0.2442
     10  CE2       33.3110    2.4330   -3.5970 C.ar   28  TRP28       0.0810
     11  CE3       31.4930    4.0010   -3.2650 C.ar   28  TRP28       0.0012
     12  CZ2       34.2080    3.2600   -2.9230 C.ar   28  TRP28       0.0191
     13  CZ3       32.3800    4.8180   -2.5820 C.ar   28  TRP28       0.0001
     14  CH2       33.7230    4.4470   -2.4200 C.ar   28  TRP28       0.0015
     15  N         41.4070   -4.6210   -4.1930 N.3    63  ILE63      -0.1231
     16  CA        42.0900   -3.3490   -4.4350 C.3    63  ILE63       0.1692
     17  C         42.6000   -3.3170   -5.8710 C.2    63  ILE63       0.2592
     18  O         43.2060   -4.2860   -6.3530 O.2    63  ILE63      -0.2718
     19  CB        43.1830   -3.0250   -3.3660 C.3    63  ILE63       0.0266
     20  CG1       43.7190   -1.6080   -3.5570 C.3    63  ILE63       0.0019
     21  CG2       44.3070   -4.0540   -3.3570 C.3    63  ILE63       0.0020
     22  CD1       44.2570   -0.9660   -2.2860 C.3    63  ILE63       0.0001
     23  N         42.3010   -2.2200   -6.5640 N.am   64  TYR64      -0.1976
     24  CA        42.5520   -2.1230   -7.9980 C.3    64  TYR64       0.1639
     25  C         43.5290   -1.0070   -8.3200 C.2    64  TYR64       0.2290
     26  O         43.5640    0.0030   -7.6240 O.2    64  TYR64      -0.2864
     27  CB        41.2570   -1.8570   -8.7510 C.3    64  TYR64       0.0560
     28  CG        40.1760   -2.9010   -8.6270 C.ar   64  TYR64      -0.0198
     29  CD1       40.1970   -4.0670   -9.4000 C.ar   64  TYR64      -0.0009
     30  CD2       39.1020   -2.7030   -7.7690 C.ar   64  TYR64      -0.0009
     31  CE1       39.1840   -5.0140   -9.2970 C.ar   64  TYR64       0.0417
     32  CE2       38.0920   -3.6360   -7.6640 C.ar   64  TYR64       0.0417
     33  CZ        38.1340   -4.7810   -8.4290 C.ar   64  TYR64       0.1957
     34  OH        37.1020   -5.6820   -8.3050 O.3    64  TYR64      -0.2866
     35  N         46.0320    4.0820   -8.0060 N.3    95  LEU95      -0.1231
     36  CA        45.1080    3.1880   -7.3260 C.3    95  LEU95       0.1693
     37  C         43.7120    3.6470   -7.7120 C.2    95  LEU95       0.2592
     38  O         43.3850    4.8330   -7.5780 O.2    95  LEU95      -0.2718
     39  CB        45.3250    3.2040   -5.8100 C.3    95  LEU95       0.0284
     40  CG        46.7540    3.0380   -5.2660 C.3    95  LEU95       0.0019
     41  CD1       46.7290    3.0080   -3.7570 C.3    95  LEU95       0.0001
     42  CD2       47.4740    1.7950   -5.7980 C.3    95  LEU95       0.0001
     43  N         42.9110    2.7140   -8.2280 N.am   96  LEU96      -0.1966
     44  CA        41.6140    3.0390   -8.8060 C.3    96  LEU96       0.1728
     45  C         40.4590    2.8650   -7.8410 C.2    96  LEU96       0.2616
     46  O         39.4910    3.6190   -7.9110 O.2    96  LEU96      -0.2715
     47  CB        41.3550    2.1940  -10.0380 C.3    96  LEU96       0.0311
     48  CG        42.2480    2.4410  -11.2450 C.3    96  LEU96       0.0022
     49  CD1       42.1900    1.2380  -12.1790 C.3    96  LEU96       0.0001
     50  CD2       41.8330    3.7330  -11.9380 C.3    96  LEU96       0.0001
     51  N         40.5430    1.8620   -6.9660 N.am   97  ALA97      -0.1963
     52  CA        39.4740    1.5770   -6.0060 C.3    97  ALA97       0.1728
     53  C         39.8920    0.6120   -4.9060 C.2    97  ALA97       0.2616
     54  O         40.8020   -0.1930   -5.0910 O.2    97  ALA97      -0.2715
     55  CB        38.2360    1.0610   -6.7180 C.3    97  ALA97       0.0334
     56  N         39.2220    0.7270   -3.7570 N.am   98  VAL98      -0.1977
     57  CA        39.3390   -0.2240   -2.6410 C.3    98  VAL98       0.1596
     58  C         37.9390   -0.6800   -2.2320 C.2    98  VAL98       0.2287
     59  O         37.0770    0.1470   -1.9000 O.2    98  VAL98      -0.2864
     60  CB        39.9980    0.4010   -1.3970 C.3    98  VAL98       0.0276
     61  CG1       40.4230   -0.6820   -0.4250 C.3    98  VAL98       0.0022
     62  CG2       41.2010    1.2240   -1.7800 C.3    98  VAL98       0.0022
     63  N         35.7480   -3.1530    0.3170 N.3   100  ILE100     -0.1245
     64  CA        35.5900   -4.0480    1.4620 C.3   100  ILE100      0.1561
     65  C         34.1060   -4.2740    1.7150 C.2   100  ILE100      0.2260
     66  O         33.3370   -3.3230    1.8270 O.2   100  ILE100     -0.2867
     67  CB        36.2910   -3.5120    2.7480 C.3   100  ILE100      0.0252
     68  CG1       37.7810   -3.2180    2.4980 C.3   100  ILE100      0.0019
     69  CG2       36.1040   -4.4850    3.9250 C.3   100  ILE100      0.0019
     70  CD1       38.6890   -4.4490    2.2970 C.3   100  ILE100      0.0001
     71  N         33.5680   -4.2490    7.2910 N.3   105  GLN105     -0.1231
     72  CA        34.2610   -2.9800    7.4430 C.3   105  GLN105      0.1698
     73  C         34.5250   -2.6750    8.9120 C.2   105  GLN105      0.2592
     74  O         33.9630   -3.3280    9.7990 O.2   105  GLN105     -0.2718
     75  CB        33.4500   -1.8600    6.8020 C.3   105  GLN105      0.0381
     76  CG        33.5080   -1.8820    5.2980 C.3   105  GLN105      0.0905
     77  CD        32.7500   -0.7420    4.6520 C.2   105  GLN105      0.2608
     78  OE1       32.5730   -0.7220    3.4380 O.2   105  GLN105     -0.2717
     79  NE2       32.2990    0.2130    5.4550 N.am  105  GLN105     -0.0878
     80  N         35.3860   -1.6860    9.1570 N.am  106  ASN106     -0.1960
     81  CA        35.7810   -1.2770   10.5140 C.3   106  ASN106      0.1819
     82  C         36.3860   -2.4190   11.3350 C.2   106  ASN106      0.2621
     83  O         36.0970   -2.5600   12.5190 O.2   106  ASN106     -0.2715
     84  CB        34.6120   -0.6150   11.2650 C.3   106  ASN106      0.1195
     85  CG        33.9000    0.4470   10.4290 C.2   106  ASN106      0.2630
     86  OD1       34.4830    1.4700   10.0590 O.2   106  ASN106     -0.2716
     87  ND2       32.6290    0.2040   10.1370 N.am  106  ASN106     -0.0877
     88  N         37.2130   -3.2330   10.6790 N.am  107  GLN107     -0.1963
     89  CA        37.9010   -4.3570   11.3090 C.3   107  GLN107      0.1733
     90  C         39.3880   -4.3460   10.9650 C.2   107  GLN107      0.2617
     91  O         40.1310   -5.2400   11.3650 O.2   107  GLN107     -0.2715
     92  CB        37.2860   -5.6920   10.8740 C.3   107  GLN107      0.0408
     93  CG        35.8580   -5.9130   11.3340 C.3   107  GLN107      0.0908
     94  CD        35.3890   -7.3380   11.1290 C.2   107  GLN107      0.2608
     95  OE1       36.1130   -8.2930   11.4120 O.2   107  GLN107     -0.2717
     96  NE2       34.1650   -7.4890   10.6430 N.am  107  GLN107     -0.0878
     97  N         39.8130   -3.3360   10.2130 N.am  108  GLY108     -0.1940
     98  CA        41.2130   -3.1940    9.8320 C.3   108  GLY108      0.2014
     99  C         41.5560   -3.7670    8.4670 C.2   108  GLY108      0.2639
    100  O         42.7290   -3.8430    8.1020 O.2   108  GLY108     -0.2714
    101  N         40.5420   -4.1630    7.7030 N.am  109  LEU109     -0.1963
    102  CA        40.7860   -4.7600    6.3870 C.3   109  LEU109      0.1728
    103  C         41.2230   -3.7430    5.3330 C.2   109  LEU109      0.2617
    104  O         42.2040   -3.9750    4.6300 O.2   109  LEU109     -0.2715
    105  CB        39.5920   -5.5930    5.9040 C.3   109  LEU109      0.0311
    106  CG        39.3900   -6.9340    6.6100 C.3   109  LEU109      0.0022
    107  CD1       38.1830   -7.6550    6.0440 C.3   109  LEU109      0.0001
    108  CD2       40.6290   -7.8140    6.5090 C.3   109  LEU109      0.0001
    109  N         40.5040   -2.6260    5.2280 N.am  110  GLY110     -0.1940
    110  CA        40.9210   -1.5210    4.3660 C.3   110  GLY110      0.2014
    111  C         42.3790   -1.1770    4.6130 C.2   110  GLY110      0.2638
    112  O         43.1980   -1.2110    3.6880 O.2   110  GLY110     -0.2714
    113  N         42.6900   -0.8730    5.8760 N.am  111  ASP111     -0.1971
    114  CA        44.0470   -0.5970    6.3540 C.3   111  ASP111      0.1709
    115  C         45.0600   -1.6180    5.8380 C.2   111  ASP111      0.2293
    116  O         46.0050   -1.2500    5.1370 O.2   111  ASP111     -0.2864
    117  CB        44.0540   -0.5470    7.8960 C.3   111  ASP111      0.1436
    118  CG        45.4530   -0.3190    8.4970 C.2   111  ASP111      0.3671
    119  OD1       46.3220    0.3060    7.8490 O.co2 111  ASP111     -0.2456
    120  OD2       45.6820   -0.7560    9.6490 O.co2 111  ASP111     -0.2456
    121  N         45.4450   -1.7280    1.9170 N.3   114  LEU114     -0.1245
    122  CA        46.1420   -0.5680    1.3780 C.3   114  LEU114      0.1561
    123  C         47.6490   -0.6340    1.6540 C.2   114  LEU114      0.2260
    124  O         48.4520   -0.4010    0.7500 O.2   114  LEU114     -0.2867
    125  CB        45.5420    0.7270    1.9280 C.3   114  LEU114      0.0270
    126  CG        46.0880    2.0400    1.3580 C.3   114  LEU114      0.0019
    127  CD1       45.7630    2.1930   -0.1220 C.3   114  LEU114      0.0001
    128  CD2       45.5560    3.2280    2.1410 C.3   114  LEU114      0.0001
    129  N         46.0640    8.4240   -5.9980 N.3   132  ALA132     -0.1231
    130  CA        44.6940    7.9290   -6.0160 C.3   132  ALA132      0.1694
    131  C         43.7590    9.1060   -6.1180 C.2   132  ALA132      0.2592
    132  O         44.0310   10.1740   -5.5530 O.2   132  ALA132     -0.2718
    133  CB        44.3870    7.1400   -4.7680 C.3   132  ALA132      0.0304
    134  N         42.6660    8.9190   -6.8470 N.am  133  VAL133     -0.1966
    135  CA        41.6070    9.9080   -6.8550 C.3   133  VAL133      0.1727
    136  C         40.4990    9.4070   -5.9490 C.2   133  VAL133      0.2617
    137  O         39.8130    8.4340   -6.2630 O.2   133  VAL133     -0.2715
    138  CB        41.0750   10.1900   -8.2600 C.3   133  VAL133      0.0290
    139  CG1       39.9720   11.2070   -8.1890 C.3   133  VAL133      0.0023
    140  CG2       42.2020   10.7100   -9.1490 C.3   133  VAL133      0.0023
    141  N         40.3380   10.0620   -4.8080 N.am  134  THR134     -0.1937
    142  CA        39.3100    9.6490   -3.8730 C.3   134  THR134      0.2028
    143  C         38.0660   10.5630   -3.9050 C.2   134  THR134      0.2642
    144  O         37.8170   11.2570   -4.8990 O.2   134  THR134     -0.2714
    145  CB        39.8990    9.4310   -2.4530 C.3   134  THR134      0.1808
    146  OG1       38.8930    8.8730   -1.5970 O.3   134  THR134     -0.2208
    147  CG2       40.4720   10.7220   -1.8600 C.3   134  THR134      0.0379
    148  N         37.2780   10.5300   -2.8350 N.am  135  LEU135     -0.1977
    149  CA        36.0610   11.3160   -2.7240 C.3   135  LEU135      0.1596
    150  C         35.7390   11.4460   -1.2450 C.2   135  LEU135      0.2287
    151  O         36.2560   10.6860   -0.4370 O.2   135  LEU135     -0.2864
    152  CB        34.9090   10.6350   -3.4640 C.3   135  LEU135      0.0297
    153  CG        34.3670    9.3110   -2.9090 C.3   135  LEU135      0.0022
    154  CD1       33.1060    8.8930   -3.6330 C.3   135  LEU135      0.0001
    155  CD2       35.4160    8.1880   -2.9570 C.3   135  LEU135      0.0001
    156  N         32.9300   11.4930    2.0320 N.3   137  ARG137     -0.1245
    157  CA        31.6870   10.8170    2.4440 C.3   137  ARG137      0.1563
    158  C         30.6940   11.7360    3.1560 C.2   137  ARG137      0.2260
    159  O         29.4830   11.4950    3.1120 O.2   137  ARG137     -0.2867
    160  CB        31.9780    9.6060    3.3440 C.3   137  ARG137      0.0307
    161  CG        30.8140    8.6100    3.4470 C.3   137  ARG137      0.0489
    162  CD        30.9320    7.6990    4.6670 C.3   137  ARG137      0.2205
    163  NE        32.0710    6.7820    4.5670 N.pl3 137  ARG137     -0.0865
    164  CZ        32.5490    6.0430    5.5750 C.cat 137  ARG137      0.5346
    165  NH1       31.9910    6.0980    6.7870 N.pl3 137  ARG137      0.1354
    166  NH2       33.5980    5.2440    5.3710 N.pl3 137  ARG137      0.1354
    167  N         36.0120   10.9670    6.8570 N.3   163  PRO163     -0.2102
    168  CA        36.5650    9.6380    7.1110 C.3   163  PRO163      0.1504
    169  C         37.2220    8.9790    5.9020 C.2   163  PRO163      0.2575
    170  O         38.1310    8.1700    6.0940 O.2   163  PRO163     -0.2718
    171  CB        35.3540    8.8240    7.5860 C.3   163  PRO163      0.0282
    172  CG        34.1880    9.5400    7.1120 C.3   163  PRO163      0.0208
    173  CD        34.5530   10.9910    7.0560 C.3   163  PRO163      0.0893
    174  N         36.7850    9.2980    4.6820 N.am  164  LEU164     -0.1980
    175  CA        37.4470    8.7350    3.4950 C.3   164  LEU164      0.1596
    176  C         38.8240    9.3710    3.2300 C.2   164  LEU164      0.2287
    177  O         39.7480    8.6830    2.7810 O.2   164  LEU164     -0.2864
    178  CB        36.5650    8.7900    2.2420 C.3   164  LEU164      0.0297
    179  CG        35.2550    7.9870    2.2420 C.3   164  LEU164      0.0022
    180  CD1       34.5260    8.1260    0.9130 C.3   164  LEU164      0.0001
    181  CD2       35.4880    6.5260    2.5500 C.3   164  LEU164      0.0001
    182  N         40.7010   10.8780    5.7530 N.3   166  ARG166     -0.1231
    183  CA        41.4760   10.4150    6.9090 C.3   166  ARG166      0.1694
    184  C         42.1260    9.0720    6.6100 C.2   166  ARG166      0.2592
    185  O         43.2870    8.8410    6.9420 O.2   166  ARG166     -0.2718
    186  CB        40.5690   10.2710    8.1250 C.3   166  ARG166      0.0321
    187  CG        41.2950   10.1130    9.4580 C.3   166  ARG166      0.0489
    188  CD        40.3580    9.7130   10.5870 C.3   166  ARG166      0.2205
    189  NE        39.1980   10.5960   10.6780 N.pl3 166  ARG166     -0.0865
    190  CZ        37.9320   10.2030   10.5320 C.cat 166  ARG166      0.5346
    191  NH1       37.6450    8.9290   10.3170 N.pl3 166  ARG166      0.1354
    192  NH2       36.9450   11.0860   10.6140 N.pl3 166  ARG166      0.1354
    193  N         41.3680    8.1920    5.9640 N.am  167  PHE167     -0.1962
    194  CA        41.8420    6.8610    5.6410 C.3   167  PHE167      0.1771
    195  C         43.1260    6.8900    4.8240 C.2   167  PHE167      0.2619
    196  O         44.0290    6.0830    5.0480 O.2   167  PHE167     -0.2715
    197  CB        40.7760    6.0760    4.8870 C.3   167  PHE167      0.0574
    198  CG        41.2360    4.7200    4.4400 C.ar  167  PHE167     -0.0200
    199  CD1       41.6450    3.7680    5.3690 C.ar  167  PHE167     -0.0042
    200  CD2       41.2630    4.3940    3.0910 C.ar  167  PHE167     -0.0042
    201  CE1       42.0670    2.5040    4.9580 C.ar  167  PHE167     -0.0003
    202  CE2       41.6770    3.1330    2.6690 C.ar  167  PHE167     -0.0003
    203  CZ        42.0840    2.1880    3.6060 C.ar  167  PHE167     -0.0000
    204  N         43.1980    7.8090    3.8740 N.am  168  HIS168     -0.1973
    205  CA        44.4180    7.9880    3.1100 C.3   168  HIS168      0.1656
    206  C         45.4740    8.6910    3.9680 C.2   168  HIS168      0.2291
    207  O         46.6280    8.2400    4.0420 O.2   168  HIS168     -0.2864
    208  CB        44.1350    8.7270    1.7950 C.3   168  HIS168      0.0771
    209  CG        43.3770    7.8990    0.8060 C.ar  168  HIS168      0.0820
    210  ND1       43.9780    6.9210    0.0410 N.ar  168  HIS168     -0.2267
    211  CD2       42.0600    7.8720    0.4860 C.ar  168  HIS168      0.1154
    212  CE1       43.0660    6.3390   -0.7180 C.ar  168  HIS168      0.1986
    213  NE2       41.8960    6.9000   -0.4710 N.ar  168  HIS168     -0.2212
    214  N         46.1740    8.7390    7.1180 N.3   170  ILE170     -0.1245
    215  CA        46.8670    7.9960    8.1670 C.3   170  ILE170      0.1561
    216  C         47.7700    6.9040    7.6070 C.2   170  ILE170      0.2260
    217  O         48.4420    6.2070    8.3620 O.2   170  ILE170     -0.2867
    218  CB        45.9070    7.4350    9.2490 C.3   170  ILE170      0.0252
    219  CG1       44.9760    6.3690    8.6740 C.3   170  ILE170      0.0019
    220  CG2       45.1060    8.5540    9.8780 C.3   170  ILE170      0.0019
    221  CD1       44.1270    5.6450    9.7200 C.3   170  ILE170      0.0001
    222  N         33.7670   12.7780  -11.2400 N.3   183  ARG183     -0.1245
    223  CA        32.6190   11.8880  -11.1400 C.3   183  ARG183      0.1563
    224  C         31.3010   12.6050  -11.4510 C.2   183  ARG183      0.2260
    225  O         30.6070   13.0420  -10.5490 O.2   183  ARG183     -0.2867
    226  CB        32.5910   11.1930   -9.7770 C.3   183  ARG183      0.0307
    227  CG        33.6800   10.1360   -9.6430 C.3   183  ARG183      0.0489
    228  CD        33.6100    9.3630   -8.3230 C.3   183  ARG183      0.2205
    229  NE        34.8700    8.6660   -8.0530 N.pl3 183  ARG183     -0.0865
    230  CZ        35.8940    9.1890   -7.3830 C.cat 183  ARG183      0.5346
    231  NH1       35.8180   10.4170   -6.8780 N.pl3 183  ARG183      0.1354
    232  NH2       36.9990    8.4800   -7.2100 N.pl3 183  ARG183      0.1354
@<TRIPOS>BOND
     1    49    48    1
     2    50    48    1
     3   224   223    1
     4   224   225    2
     5    48    47    1
     6   222   223    1
     7   223   226    1
     8    47    44    1
     9   226   227    1
    10   227   228    1
    11    29    31   ar
    12    29    28   ar
    13    31    33   ar
    14   140   138    1
    15    44    43    1
    16    44    45    1
    17    27    28    1
    18    27    24    1
    19    28    30   ar
    20    33    34    1
    21    33    32   ar
    22   228   229    1
    23    25    24    1
    24    25    26    2
    25   138   139    1
    26   138   135    1
    27    43    37   am
    28   229   230    2
    29    35    36    1
    30    24    23    1
    31    46    45    2
    32    45    51   am
    33    30    32   ar
    34    37    38    2
    35    37    36    1
    36   230   232    1
    37   230   231    1
    38    36    39    1
    39    51    52    1
    40   135   134    1
    41   135   136    1
    42   134   131   am
    43    55    52    1
    44    23    17   am
    45    18    17    2
    46   137   136    2
    47   131   130    1
    48   131   132    2
    49   130   129    1
    50   130   133    1
    51    52    53    1
    52   136   141   am
    53    17    16    1
    54    39    40    1
    55    42    40    1
    56    40    41    1
    57    54    53    2
    58     5     6    1
    59     5     2    1
    60    53    56   am
    61   144   143    2
    62     4     3    2
    63   141   142    1
    64     7     6   ar
    65     7     9   ar
    66     6     8   ar
    67    16    15    1
    68    16    19    1
    69     3     2    1
    70     9    10   ar
    71   143   142    1
    72   143   148   am
    73   142   145    1
    74     2     1    1
    75     8    10   ar
    76     8    11   ar
    77    56    57    1
    78   154   153    1
    79    10    12   ar
    80    20    19    1
    81    20    22    1
    82   152   153    1
    83   152   149    1
    84    19    21    1
    85    11    13   ar
    86   155   153    1
    87    12    14   ar
    88   148   149    1
    89   149   150    1
    90    57    58    1
    91    57    60    1
    92    13    14   ar
    93   145   147    1
    94   145   146    1
    95    58    59    2
    96    62    60    1
    97    60    61    1
    98   150   151    2
    99   212   213   ar
   100   212   210   ar
   101   213   211   ar
   102   127   126    1
   103   210   209   ar
   104    63    64    1
   105   211   209   ar
   106   124   123    2
   107   209   208    1
   108   180   179    1
   109   126   125    1
   110   126   128    1
   111   122   123    1
   112   122   121    1
   113   122   125    1
   114    64    65    1
   115    64    67    1
   116    65    66    2
   117   208   205    1
   118   156   157    1
   119   178   179    1
   120   178   175    1
   121   179   181    1
   122    70    68    1
   123   157   158    1
   124   157   160    1
   125    68    67    1
   126   202   200   ar
   127   202   203   ar
   128    67    69    1
   129   177   176    2
   130   200   198   ar
   131   205   204    1
   132   205   206    1
   133   159   158    2
   134   176   175    1
   135   160   161    1
   136    78    77    2
   137   161   162    1
   138   175   174    1
   139   203   201   ar
   140   112   111    2
   141   204   195   am
   142   206   207    2
   143   110   111    1
   144   110   109    1
   145   198   197    1
   146   198   199   ar
   147   163   162    1
   148   163   164    2
   149   111   113   am
   150   104   103    2
   151    77    76    1
   152    77    79   am
   153   174   169   am
   154   195   196    2
   155   195   194    1
   156   197   194    1
   157   201   199   ar
   158   116   115    2
   159   109   103   am
   160    76    75    1
   161   103   102    1
   162   166   164    1
   163   164   165    1
   164   194   193    1
   165   182   183    1
   166   115   114    1
   167   113   114    1
   168   169   170    2
   169   169   168    1
   170   105   102    1
   171   105   106    1
   172   193   184   am
   173   107   106    1
   174   114   117    1
   175   102   101    1
   176   108   106    1
   177   184   183    1
   178   184   185    2
   179    75    72    1
   180   167   173    1
   181   167   168    1
   182   183   186    1
   183   173   172    1
   184   168   171    1
   185   172   171    1
   186   214   215    1
   187    71    72    1
   188    72    73    1
   189   216   215    1
   190   216   217    2
   191   101    99   am
   192   119   118   ar
   193   117   118    1
   194   100    99    2
   195   186   187    1
   196   215   218    1
   197    99    98    1
   198   118   120   ar
   199   219   218    1
   200   219   221    1
   201    73    80   am
   202    73    74    2
   203    80    81    1
   204   218   220    1
   205   187   188    1
   206    98    97    1
   207    86    85    2
   208    87    85   am
   209    97    90   am
   210   191   190    1
   211    85    84    1
   212    81    84    1
   213    81    82    1
   214   190   192    1
   215   190   189    2
   216   188   189    1
   217    96    94   am
   218    88    89    1
   219    88    82   am
   220    92    89    1
   221    92    93    1
   222    90    89    1
   223    90    91    2
   224    94    93    1
   225    94    95    2
   226    82    83    2
