@<TRIPOS>MOLECULE
tmp/2rewA00.pdb
 95 88 0 0 0
SMALL
GASTEIGER

@<TRIPOS>ATOM
      1  N        -35.6270   43.7740  -22.6510 N.3     2  THR2       -0.1218
      2  CA       -34.1430   43.8760  -22.7200 C.3     2  THR2        0.1862
      3  C        -33.6010   44.6440  -21.4970 C.2     2  THR2        0.2287
      4  O        -32.6810   44.1800  -20.8020 O.2     2  THR2       -0.2866
      5  CB       -33.5690   44.5110  -24.0440 C.3     2  THR2        0.1770
      6  OG1      -34.5410   45.3730  -24.6580 O.3     2  THR2       -0.2211
      7  CG2      -33.1370   43.4200  -25.0430 C.3     2  THR2        0.0375
      8  N        -35.3940   42.6190  -18.8870 N.3     5  LEU5       -0.1231
      9  CA       -34.7010   41.3540  -18.7060 C.3     5  LEU5        0.1693
     10  C        -33.4830   41.4910  -17.7960 C.2     5  LEU5        0.2591
     11  O        -33.3070   40.6740  -16.8970 O.2     5  LEU5       -0.2718
     12  CB       -34.3080   40.7310  -20.0490 C.3     5  LEU5        0.0284
     13  CG       -35.3870   40.0170  -20.8780 C.3     5  LEU5        0.0019
     14  CD1      -34.6980   38.9340  -21.6910 C.3     5  LEU5        0.0001
     15  CD2      -36.5560   39.4150  -20.0620 C.3     5  LEU5        0.0001
     16  N        -32.6550   42.5140  -18.0320 N.am    6  LYS6       -0.1980
     17  CA       -31.5850   42.8860  -17.0990 C.3     6  LYS6        0.1596
     18  C        -32.1380   43.0730  -15.6780 C.2     6  LYS6        0.2287
     19  O        -31.5870   42.5460  -14.7000 O.2     6  LYS6       -0.2864
     20  CB       -30.8570   44.1610  -17.5460 C.3     6  LYS6        0.0298
     21  CG       -29.6930   44.5470  -16.6000 C.3     6  LYS6        0.0038
     22  CD       -28.9460   45.8110  -17.0100 C.3     6  LYS6        0.0206
     23  CE       -27.7260   46.0240  -16.0980 C.3     6  LYS6        0.1093
     24  NZ       -26.7960   47.0950  -16.5970 N.3     6  LYS6       -0.1314
     25  N        -33.2340   39.6570  -14.0070 N.3     9  ALA9       -0.1231
     26  CA       -32.0420   38.8780  -13.7070 C.3     9  ALA9        0.1694
     27  C        -31.2020   39.4900  -12.5810 C.2     9  ALA9        0.2591
     28  O        -30.7040   38.7620  -11.7000 O.2     9  ALA9       -0.2718
     29  CB       -31.2040   38.7110  -14.9590 C.3     9  ALA9        0.0304
     30  N        -31.0610   40.8200  -12.6160 N.am   10  LYS10      -0.1980
     31  CA       -30.3730   41.5900  -11.5660 C.3    10  LYS10       0.1596
     32  C        -30.9750   41.3350  -10.2050 C.2    10  LYS10       0.2287
     33  O        -30.2600   41.0270   -9.2670 O.2    10  LYS10      -0.2864
     34  CB       -30.4060   43.1050  -11.8820 C.3    10  LYS10       0.0298
     35  CG       -29.6710   43.9930  -10.8980 C.3    10  LYS10       0.0038
     36  CD       -29.8590   45.4620  -11.2260 C.3    10  LYS10       0.0206
     37  CE       -29.7690   46.3260   -9.9690 C.3    10  LYS10       0.1093
     38  NZ       -30.4650   47.6530  -10.1430 N.3    10  LYS10      -0.1314
     39  N        -30.3070   37.6060   -9.1850 N.3    13  TYR13      -0.1241
     40  CA       -28.9120   37.3880   -8.8380 C.3    13  TYR13       0.1605
     41  C        -28.5550   38.0090   -7.4980 C.2    13  TYR13       0.2264
     42  O        -27.8950   37.3730   -6.6800 O.2    13  TYR13      -0.2867
     43  CB       -27.9760   37.9160   -9.9160 C.3    13  TYR13       0.0534
     44  CG       -26.5260   37.5290   -9.7090 C.ar   13  TYR13      -0.0201
     45  CD1      -26.1840   36.2470   -9.2750 C.ar   13  TYR13      -0.0009
     46  CD2      -25.4940   38.4450   -9.9340 C.ar   13  TYR13      -0.0009
     47  CE1      -24.8640   35.8670   -9.0950 C.ar   13  TYR13       0.0417
     48  CE2      -24.1370   38.0710   -9.7580 C.ar   13  TYR13       0.0417
     49  CZ       -23.8400   36.7760   -9.3350 C.ar   13  TYR13       0.1957
     50  OH       -22.5280   36.3710   -9.1320 O.3    13  TYR13      -0.2866
     51  N        -24.3860   32.8770  -11.2340 N.3   161  SER161     -0.1217
     52  CA       -25.4420   33.6310  -11.9150 C.3   161  SER161      0.1889
     53  C        -26.4180   32.6790  -12.6080 C.2   161  SER161      0.2288
     54  O        -27.6140   32.9070  -12.5350 O.2   161  SER161     -0.2866
     55  CB       -24.8700   34.6500  -12.9030 C.3   161  SER161      0.2089
     56  OG       -23.9270   34.0460  -13.7720 O.3   161  SER161     -0.2183
     57  N        -30.6570   31.8700  -11.4530 N.3   165  LEU165     -0.1245
     58  CA       -31.7670   31.9030  -12.4130 C.3   165  LEU165      0.1561
     59  C        -32.4210   30.5200  -12.4440 C.2   165  LEU165      0.2260
     60  O        -33.6360   30.4040  -12.4070 O.2   165  LEU165     -0.2867
     61  CB       -31.2320   32.3060  -13.8010 C.3   165  LEU165      0.0270
     62  CG       -30.7130   33.7450  -13.9840 C.3   165  LEU165      0.0019
     63  CD1      -30.1540   33.9560  -15.3880 C.3   165  LEU165      0.0001
     64  CD2      -31.8220   34.7640  -13.7060 C.3   165  LEU165      0.0001
     65  N        -34.8980   34.5670  -19.7770 N.3   195  VAL195     -0.1245
     66  CA       -33.6190   35.2270  -19.4250 C.3   195  VAL195      0.1561
     67  C        -32.4990   34.2130  -19.0920 C.2   195  VAL195      0.2260
     68  O        -31.3300   34.4310  -19.4110 O.2   195  VAL195     -0.2867
     69  CB       -33.7930   36.3510  -18.3340 C.3   195  VAL195      0.0252
     70  CG1      -33.9980   35.7740  -16.9180 C.3   195  VAL195      0.0019
     71  CG2      -32.6130   37.3110  -18.3660 C.3   195  VAL195      0.0019
     72  N        -31.1120   33.0210  -22.6010 N.3   198  LEU198     -0.1231
     73  CA       -30.2340   34.0830  -23.1170 C.3   198  LEU198      0.1693
     74  C        -28.9510   34.2330  -22.2820 C.2   198  LEU198      0.2592
     75  O        -27.8550   34.3860  -22.8380 O.2   198  LEU198     -0.2718
     76  CB       -30.9880   35.4190  -23.2450 C.3   198  LEU198      0.0284
     77  CG       -32.1360   35.4610  -24.2760 C.3   198  LEU198      0.0019
     78  CD1      -32.8660   36.8180  -24.2980 C.3   198  LEU198      0.0001
     79  CD2      -31.6280   35.1110  -25.6760 C.3   198  LEU198      0.0001
     80  N        -29.0770   34.1670  -20.9540 N.am  199  HIS199     -0.1976
     81  CA       -27.9070   34.2200  -20.0900 C.3   199  HIS199      0.1656
     82  C        -26.9780   33.0380  -20.3690 C.2   199  HIS199      0.2291
     83  O        -25.7710   33.2030  -20.4830 O.2   199  HIS199     -0.2864
     84  CB       -28.3300   34.3190  -18.6210 C.3   199  HIS199      0.0771
     85  CG       -27.1890   34.2800  -17.6470 C.ar  199  HIS199      0.0820
     86  ND1      -26.4860   35.4050  -17.2730 N.ar  199  HIS199     -0.2267
     87  CD2      -26.6360   33.2460  -16.9620 C.ar  199  HIS199      0.1154
     88  CE1      -25.5540   35.0680  -16.3970 C.ar  199  HIS199      0.1986
     89  NE2      -25.6230   33.7640  -16.1910 N.ar  199  HIS199     -0.2212
     90  N        -24.9660   33.4440  -23.8830 N.3   202  SER202     -0.1217
     91  CA       -23.8300   34.3810  -23.8570 C.3   202  SER202      0.1889
     92  C        -22.7200   33.9520  -22.8940 C.2   202  SER202      0.2288
     93  O        -21.5430   34.0360  -23.2440 O.2   202  SER202     -0.2866
     94  CB       -24.2680   35.8420  -23.6260 C.3   202  SER202      0.2089
     95  OG       -25.0130   36.0040  -22.4360 O.3   202  SER202     -0.2183
@<TRIPOS>BOND
     1    79    77    1
     2     7     5    1
     3     6     5    1
     4    78    77    1
     5    77    76    1
     6     5     2    1
     7    90    91    1
     8    91    94    1
     9    91    92    1
    10    94    95    1
    11    76    73    1
    12    93    92    2
    13    73    72    1
    14    73    74    1
    15    75    74    2
    16     2     1    1
    17     2     3    1
    18    74    80   am
    19    14    13    1
    20     3     4    2
    21    80    81    1
    22    13    15    1
    23    13    12    1
    24    83    82    2
    25    82    81    1
    26    81    84    1
    27    12     9    1
    28    65    66    1
    29    66    67    1
    30    66    69    1
    31    68    67    2
    32     8     9    1
    33     9    10    1
    34    84    85    1
    35    71    69    1
    36    69    70    1
    37    16    10   am
    38    16    17    1
    39    10    11    2
    40    85    86   ar
    41    85    87   ar
    42    20    17    1
    43    20    21    1
    44    86    88   ar
    45    17    18    1
    46    22    21    1
    47    22    23    1
    48    87    89   ar
    49    24    23    1
    50    88    89   ar
    51    18    19    2
    52    63    62    1
    53    29    26    1
    54    25    26    1
    55    62    61    1
    56    62    64    1
    57    61    58    1
    58    56    55    1
    59    26    27    1
    60    55    52    1
    61    30    27   am
    62    30    31    1
    63    53    54    2
    64    53    52    1
    65    27    28    2
    66    59    58    1
    67    59    60    2
    68    58    57    1
    69    52    51    1
    70    34    31    1
    71    34    35    1
    72    31    32    1
    73    36    35    1
    74    36    37    1
    75    32    33    2
    76    38    37    1
    77    46    48   ar
    78    46    44   ar
    79    43    44    1
    80    43    40    1
    81    48    49   ar
    82    44    45   ar
    83    49    50    1
    84    49    47   ar
    85    45    47   ar
    86    39    40    1
    87    40    41    1
    88    41    42    2
