@<TRIPOS>MOLECULE
tmp/2rexD00.pdb
 187 186 0 0 0
SMALL
GASTEIGER

@<TRIPOS>ATOM
      1  N         28.7980   -6.1090   10.1640 N.3    16  VAL16      -0.1231
      2  CA        27.9600   -5.0860   10.8030 C.3    16  VAL16       0.1692
      3  C         28.3740   -3.7150   10.2250 C.2    16  VAL16       0.2592
      4  O         29.5280   -3.4860    9.8990 O.2    16  VAL16      -0.2718
      5  CB        28.0410   -5.1010   12.4130 C.3    16  VAL16       0.0266
      6  CG1       27.6680   -6.4560   13.0080 C.3    16  VAL16       0.0020
      7  CG2       29.3870   -4.6810   12.8950 C.3    16  VAL16       0.0020
      8  N         27.4140   -2.8180   10.1220 N.am   17  GLN17      -0.1966
      9  CA        27.5940   -1.4860    9.5870 C.3    17  GLN17       0.1733
     10  C         28.1100   -1.3680    8.1630 C.2    17  GLN17       0.2616
     11  O         28.5820   -0.3020    7.7830 O.2    17  GLN17      -0.2715
     12  CB        28.4920   -0.7120   10.5050 C.3    17  GLN17       0.0408
     13  CG        27.9750   -0.6890   11.8900 C.3    17  GLN17       0.0908
     14  CD        28.8280    0.1450   12.7860 C.2    17  GLN17       0.2608
     15  OE1       28.9590    1.3500   12.5680 O.2    17  GLN17      -0.2717
     16  NE2       29.4220   -0.4830   13.8030 N.am   17  GLN17      -0.0878
     17  N         28.0120   -2.4390    7.3740 N.am   18  CYS18      -0.1954
     18  CA        28.4900   -2.4210    5.9700 C.3    18  CYS18       0.1843
     19  C         27.5000   -1.7310    5.0310 C.2    18  CYS18       0.2626
     20  O         27.8960   -1.2430    3.9960 O.2    18  CYS18      -0.2714
     21  CB        28.9000   -3.8520    5.4690 C.3    18  CYS18       0.0997
     22  SG        27.6130   -4.9320    4.8770 S.3    18  CYS18      -0.0797
     23  N         26.2130   -1.6820    5.3860 N.am   19  GLY19      -0.1940
     24  CA        25.2210   -0.9310    4.5720 C.3    19  GLY19       0.2014
     25  C         24.0130   -1.6920    4.0300 C.2    19  GLY19       0.2639
     26  O         23.3110   -1.1840    3.1330 O.2    19  GLY19      -0.2714
     27  N         23.7790   -2.8930    4.5620 N.am   20  LYS20      -0.1963
     28  CA        22.6980   -3.7950    4.1270 C.3    20  LYS20       0.1728
     29  C         21.2960   -3.1870    4.2980 C.2    20  LYS20       0.2617
     30  O         20.5600   -3.0520    3.3570 O.2    20  LYS20      -0.2715
     31  CB        22.7910   -5.1190    4.9060 C.3    20  LYS20       0.0311
     32  CG        24.1080   -5.8960    4.6260 C.3    20  LYS20       0.0038
     33  CD        24.1520   -7.2740    5.2900 C.3    20  LYS20       0.0206
     34  CE        24.0860   -7.2440    6.7670 C.3    20  LYS20       0.1093
     35  NZ        25.0330   -6.3280    7.3190 N.3    20  LYS20      -0.1314
     36  N         20.9710   -2.7800    5.5140 N.am   21  THR21      -0.1937
     37  CA        19.6860   -2.1300    5.8130 C.3    21  THR21       0.2028
     38  C         19.4930   -0.8430    5.0940 C.2    21  THR21       0.2642
     39  O         18.4150   -0.6160    4.5680 O.2    21  THR21      -0.2714
     40  CB        19.5750   -1.9020    7.2790 C.3    21  THR21       0.1808
     41  OG1       19.7640   -3.1650    7.9200 O.3    21  THR21      -0.2208
     42  CG2       18.2160   -1.3210    7.6730 C.3    21  THR21       0.0379
     43  N         20.5160   -0.0080    5.0410 N.am   22  ALA22      -0.1977
     44  CA        20.4500    1.2530    4.2460 C.3    22  ALA22       0.1597
     45  C         20.0120    1.0420    2.7980 C.2    22  ALA22       0.2287
     46  O         19.1830    1.8060    2.2920 O.2    22  ALA22      -0.2864
     47  CB        21.7440    2.0260    4.3180 C.3    22  ALA22       0.0319
     48  N         16.5800    6.6900    3.7670 N.3    32  TYR32      -0.1228
     49  CA        17.9420    6.4320    4.1120 C.3    32  TYR32       0.1721
     50  C         18.1240    6.5720    5.6570 C.2    32  TYR32       0.2437
     51  O         17.8980    7.6620    6.2460 O.2    32  TYR32      -0.2733
     52  CB        18.8530    7.3930    3.3360 C.3    32  TYR32       0.0547
     53  CG        20.3030    7.2500    3.7020 C.ar   32  TYR32      -0.0200
     54  CD1       21.0520    6.2020    3.2070 C.ar   32  TYR32      -0.0009
     55  CD2       20.9140    8.1510    4.5710 C.ar   32  TYR32      -0.0009
     56  CE1       22.3610    6.0340    3.5650 C.ar   32  TYR32       0.0417
     57  CE2       22.2550    7.9960    4.9430 C.ar   32  TYR32       0.0417
     58  CZ        22.9620    6.9250    4.4200 C.ar   32  TYR32       0.1957
     59  OH        24.2500    6.7620    4.7290 O.3    32  TYR32      -0.2866
     60  N         18.4750    5.4690    6.3180 N.am   33  PRO33      -0.2718
     61  CA        18.7200    5.4810    7.7680 C.3    33  PRO33       0.1535
     62  C         20.1560    5.8880    8.0770 C.2    33  PRO33       0.2598
     63  O         21.0650    5.0700    8.0270 O.2    33  PRO33      -0.2715
     64  CB        18.4440    4.0550    8.1680 C.3    33  PRO33       0.0310
     65  CG        18.8730    3.2680    6.9640 C.3    33  PRO33       0.0237
     66  CD        18.5990    4.1220    5.7500 C.3    33  PRO33       0.0939
     67  N         20.3360    7.1790    8.3340 N.am   34  GLU34      -0.1964
     68  CA        21.6600    7.7510    8.5540 C.3    34  GLU34       0.1733
     69  C         22.2740    7.3410    9.9030 C.2    34  GLU34       0.2617
     70  O         23.4840    7.3830   10.0610 O.2    34  GLU34      -0.2715
     71  CB        21.6340    9.2810    8.4030 C.3    34  GLU34       0.0429
     72  CG        20.8050   10.0450    9.4280 C.3    34  GLU34       0.1163
     73  CD        19.3620   10.3020    8.9780 C.2    34  GLU34       0.3649
     74  OE1       18.8730    9.5850    8.0600 O.co2  34  GLU34      -0.2457
     75  OE2       18.7250   11.2270    9.5570 O.co2  34  GLU34      -0.2457
     76  N         21.4230    6.9600   10.8570 N.am   35  THR35      -0.1937
     77  CA        21.8290    6.5220   12.1840 C.3    35  THR35       0.2028
     78  C         21.7530    4.9890   12.2140 C.2    35  THR35       0.2642
     79  O         20.7340    4.3830   11.7900 O.2    35  THR35      -0.2714
     80  CB        20.9320    7.1430   13.2610 C.3    35  THR35       0.1808
     81  OG1       21.0900    8.5730   13.2300 O.3    35  THR35      -0.2208
     82  CG2       21.3130    6.6050   14.6890 C.3    35  THR35       0.0379
     83  N         22.8520    4.3720   12.6500 N.am   36  TYR36      -0.1959
     84  CA        23.0150    2.9070   12.6850 C.3    36  TYR36       0.1771
     85  C         22.1530    2.3210   13.8020 C.2    36  TYR36       0.2619
     86  O         22.3100    2.6900   14.9500 O.2    36  TYR36      -0.2715
     87  CB        24.4740    2.5410   12.9500 C.3    36  TYR36       0.0574
     88  CG        24.6990    1.0450   13.1740 C.ar   36  TYR36      -0.0198
     89  CD1       24.1760    0.0970   12.2930 C.ar   36  TYR36      -0.0009
     90  CD2       25.4290    0.5840   14.2620 C.ar   36  TYR36      -0.0009
     91  CE1       24.3870   -1.2690   12.4850 C.ar   36  TYR36       0.0417
     92  CE2       25.6490   -0.7900   14.4520 C.ar   36  TYR36       0.0417
     93  CZ        25.1230   -1.6970   13.5590 C.ar   36  TYR36       0.1957
     94  OH        25.3300   -3.0350   13.7640 O.3    36  TYR36      -0.2866
     95  N         21.2260    1.4480   13.4290 N.am   37  VAL37      -0.1964
     96  CA        20.4160    0.6720   14.3440 C.3    37  VAL37       0.1712
     97  C         20.6910   -0.8030   13.9290 C.2    37  VAL37       0.2458
     98  O         20.2760   -1.2050   12.8530 O.2    37  VAL37      -0.2730
     99  CB        18.8920    1.0560   14.2360 C.3    37  VAL37       0.0289
    100  CG1       17.9740    0.0210   14.9200 C.3    37  VAL37       0.0023
    101  CG2       18.6280    2.4890   14.8220 C.3    37  VAL37       0.0023
    102  N         21.3960   -1.5880   14.7840 N.am   38  PRO38      -0.2716
    103  CA        21.6630   -3.0090   14.4910 C.3    38  PRO38       0.1536
    104  C         20.4120   -3.8740   14.1890 C.2    38  PRO38       0.2599
    105  O         19.4160   -3.8370   14.9130 O.2    38  PRO38      -0.2715
    106  CB        22.3680   -3.5210   15.7650 C.3    38  PRO38       0.0310
    107  CG        22.7910   -2.2940   16.5470 C.3    38  PRO38       0.0237
    108  CD        21.9760   -1.1580   16.0940 C.3    38  PRO38       0.0939
    109  N         20.4970   -4.6560   13.1210 N.am   39  THR39      -0.1951
    110  CA        19.4430   -5.5920   12.7600 C.3    39  THR39       0.1897
    111  C         19.6490   -6.9100   13.4000 C.2    39  THR39       0.2313
    112  O         20.7800   -7.2600   13.7390 O.2    39  THR39      -0.2863
    113  CB        19.4010   -5.7980   11.2350 C.3    39  THR39       0.1794
    114  OG1       19.4110   -4.5370   10.6400 O.3    39  THR39      -0.2208
    115  CG2       18.1210   -6.5710   10.7490 C.3    39  THR39       0.0378
    116  N         16.7460   -9.2650    5.4640 N.3    61  ASP61      -0.1225
    117  CA        17.7950   -8.5000    6.0850 C.3    61  ASP61       0.1805
    118  C         18.2220   -9.2630    7.3340 C.2    61  ASP61       0.2598
    119  O         17.3880   -9.7380    8.0820 O.2    61  ASP61      -0.2718
    120  CB        17.2650   -7.0930    6.4720 C.3    61  ASP61       0.1424
    121  CG        18.3730   -6.0690    6.6760 C.2    61  ASP61       0.3668
    122  OD1       19.5570   -6.4100    6.4880 O.co2  61  ASP61      -0.2456
    123  OD2       18.0210   -4.8980    7.0050 O.co2  61  ASP61      -0.2456
    124  N         19.5200   -9.3370    7.5580 N.am   62  THR62      -0.1939
    125  CA        20.0920  -10.1060    8.6260 C.3    62  THR62       0.2028
    126  C         21.1980   -9.3230    9.3140 C.2    62  THR62       0.2643
    127  O         21.8000   -8.3690    8.7140 O.2    62  THR62      -0.2714
    128  CB        20.7790  -11.4250    8.0790 C.3    62  THR62       0.1808
    129  OG1       21.9020  -11.0860    7.2720 O.3    62  THR62      -0.2208
    130  CG2       19.8000  -12.2970    7.2650 C.3    62  THR62       0.0379
    131  N         21.5040   -9.7560   10.5460 N.am   63  SER63      -0.1935
    132  CA        22.6460   -9.2550   11.3220 C.3    63  SER63       0.2055
    133  C         24.0180   -9.7550   10.8640 C.2    63  SER63       0.2643
    134  O         24.2300  -10.9430   10.7020 O.2    63  SER63      -0.2714
    135  CB        22.5180   -9.6780   12.7710 C.3    63  SER63       0.2130
    136  OG        23.5840   -9.1330   13.5100 O.3    63  SER63      -0.2179
    137  N         24.9720   -8.8500   10.7410 N.am   64  GLY64      -0.1954
    138  CA        26.3400   -9.2230   10.4830 C.3    64  GLY64       0.1869
    139  C         27.1590   -9.6100   11.7080 C.2    64  GLY64       0.2309
    140  O         28.3730   -9.8140   11.5800 O.2    64  GLY64      -0.2863
    141  N         29.2620   -1.5300   -1.0910 N.3   117  CYS117     -0.1221
    142  CA        28.3640   -0.5400   -0.5050 C.3   117  CYS117      0.1808
    143  C         29.1140    0.6840   -0.1460 C.2   117  CYS117      0.2601
    144  O         30.2840    0.6030    0.1490 O.2   117  CYS117     -0.2717
    145  CB        27.7050   -1.0540    0.7710 C.3   117  CYS117      0.0970
    146  SG        26.7810   -2.6300    0.6780 S.3   117  CYS117     -0.0800
    147  N         28.4120    1.8280   -0.1300 N.am  118  LYS118     -0.1979
    148  CA        28.9870    3.1300    0.2200 C.3   118  LYS118      0.1596
    149  C         30.0190    3.6300   -0.8050 C.2   118  LYS118      0.2287
    150  O         31.0870    4.0710   -0.3970 O.2   118  LYS118     -0.2864
    151  CB        29.6310    3.1120    1.6100 C.3   118  LYS118      0.0298
    152  CG        28.8790    2.3820    2.6670 C.3   118  LYS118      0.0038
    153  CD        29.3130    2.7790    4.0610 C.3   118  LYS118      0.0206
    154  CE        28.6580    1.8700    5.1100 C.3   118  LYS118      0.1093
    155  NZ        29.3630    2.0110    6.4140 N.3   118  LYS118     -0.1314
    156  N         30.0300    6.1800   -2.6880 N.3   120  ASP120     -0.1225
    157  CA        30.2690    7.6160   -2.4710 C.3   120  ASP120      0.1805
    158  C         31.5280    7.9200   -1.6200 C.2   120  ASP120      0.2597
    159  O         32.0750    9.0000   -1.7020 O.2   120  ASP120     -0.2718
    160  CB        29.0380    8.2710   -1.8190 C.3   120  ASP120      0.1424
    161  CG        28.5540    7.5430   -0.5580 C.2   120  ASP120      0.3668
    162  OD1       27.9900    6.4310   -0.6720 O.co2 120  ASP120     -0.2456
    163  OD2       28.6810    8.1010    0.5470 O.co2 120  ASP120     -0.2456
    164  N         31.9640    6.9700   -0.7970 N.am  121  LEU121     -0.1979
    165  CA        33.0630    7.2170    0.1140 C.3   121  LEU121      0.1596
    166  C         34.4580    7.1820   -0.5740 C.2   121  LEU121      0.2287
    167  O         35.4590    7.5850    0.0270 O.2   121  LEU121     -0.2864
    168  CB        32.9830    6.2730    1.3230 C.3   121  LEU121      0.0297
    169  CG        31.8210    6.5040    2.3120 C.3   121  LEU121      0.0022
    170  CD1       31.7230    5.3970    3.3460 C.3   121  LEU121      0.0001
    171  CD2       31.9510    7.8550    3.0060 C.3   121  LEU121      0.0001
    172  N         23.7820    3.8970   -1.2070 N.3   161  ALA161     -0.1231
    173  CA        22.4170    4.1120   -0.6760 C.3   161  ALA161      0.1694
    174  C         22.2060    5.5950   -0.2920 C.2   161  ALA161      0.2592
    175  O         21.0800    6.1090   -0.3340 O.2   161  ALA161     -0.2718
    176  CB        22.1740    3.1870    0.5260 C.3   161  ALA161      0.0304
    177  N         23.3070    6.2780    0.0210 N.am  162  PHE162     -0.1976
    178  CA        23.2940    7.6700    0.4530 C.3   162  PHE162      0.1639
    179  C         23.1560    8.6650   -0.7110 C.2   162  PHE162      0.2290
    180  O         22.3270    9.5860   -0.6460 O.2   162  PHE162     -0.2864
    181  CB        24.5440    7.9870    1.2960 C.3   162  PHE162      0.0560
    182  CG        24.6030    9.4090    1.7660 C.ar  162  PHE162     -0.0200
    183  CD1       25.6950   10.2000    1.4990 C.ar  162  PHE162     -0.0042
    184  CD2       23.5210    9.9780    2.4540 C.ar  162  PHE162     -0.0042
    185  CE1       25.7060   11.5410    1.9180 C.ar  162  PHE162     -0.0003
    186  CE2       23.5390   11.3050    2.8680 C.ar  162  PHE162     -0.0003
    187  CZ        24.6180   12.0770    2.5980 C.ar  162  PHE162     -0.0000
@<TRIPOS>BOND
     1   156   157    1
     2   157   160    1
     3   157   158    1
     4   160   161    1
     5   159   158    2
     6   158   164   am
     7   172   173    1
     8   141   142    1
     9   149   150    2
    10   149   148    1
    11   164   165    1
    12   179   180    2
    13   179   178    1
    14   173   174    1
    15   173   176    1
    16   162   161   ar
    17   166   167    2
    18   166   165    1
    19   161   163   ar
    20   142   143    1
    21   142   145    1
    22   175   174    2
    23   174   177   am
    24   143   147   am
    25   143   144    2
    26   147   148    1
    27   177   178    1
    28   165   168    1
    29   148   151    1
    30   178   181    1
    31   146   145    1
    32   181   182    1
    33   168   169    1
    34   183   182   ar
    35   183   185   ar
    36   151   152    1
    37   182   184   ar
    38   185   187   ar
    39    46    45    2
    40   169   171    1
    41   169   170    1
    42   184   186   ar
    43   187   186   ar
    44   152   153    1
    45    45    44    1
    46    26    25    2
    47    54    56   ar
    48    54    53   ar
    49    52    53    1
    50    52    49    1
    51    30    29    2
    52    56    58   ar
    53    53    55   ar
    54    48    49    1
    55    20    19    2
    56    25    27   am
    57    25    24    1
    58   153   154    1
    59    49    50    1
    60    28    29    1
    61    28    27    1
    62    28    31    1
    63    44    47    1
    64    44    43    1
    65    29    36   am
    66    58    59    1
    67    58    57   ar
    68    39    38    2
    69    55    57   ar
    70    24    23    1
    71    32    31    1
    72    32    33    1
    73    22    21    1
    74    19    23   am
    75    19    18    1
    76    43    38   am
    77    38    37    1
    78   154   155    1
    79    33    34    1
    80   116   117    1
    81    21    18    1
    82    36    37    1
    83    50    51    2
    84    50    60   am
    85    66    60    1
    86    66    65    1
    87    37    40    1
    88    18    17    1
    89   117   120    1
    90   117   118    1
    91    60    61    1
    92   120   121    1
    93   122   121   ar
    94   121   123   ar
    95    34    35    1
    96    65    64    1
    97   130   128    1
    98   129   128    1
    99    40    42    1
   100    40    41    1
   101   118   124   am
   102   118   119    2
   103    17    10   am
   104   124   125    1
   105    61    62    1
   106    61    64    1
   107    11    10    2
   108    63    62    2
   109    74    73   ar
   110    62    67   am
   111   128   125    1
   112    10     9    1
   113    67    68    1
   114    71    68    1
   115    71    72    1
   116    68    69    1
   117   125   126    1
   118   127   126    2
   119    73    72    1
   120    73    75   ar
   121   126   131   am
   122     9     8    1
   123     9    12    1
   124     4     3    2
   125    69    70    2
   126    69    76   am
   127     8     3   am
   128     1     2    1
   129     3     2    1
   130   138   137    1
   131   138   139    1
   132    12    13    1
   133   131   132    1
   134   114   113    1
   135   134   133    2
   136   137   133   am
   137   115   113    1
   138     2     5    1
   139    76    77    1
   140   133   132    1
   141   113   110    1
   142   132   135    1
   143   140   139    2
   144    79    78    2
   145    13    14    1
   146    77    78    1
   147    77    80    1
   148    78    83   am
   149    89    91   ar
   150    89    88   ar
   151     5     7    1
   152     5     6    1
   153    91    93   ar
   154    15    14    2
   155    83    84    1
   156    84    87    1
   157    84    85    1
   158   110   109    1
   159   110   111    1
   160   135   136    1
   161    14    16   am
   162    98    97    2
   163    87    88    1
   164   109   104   am
   165    88    90   ar
   166    81    80    1
   167    80    82    1
   168   111   112    2
   169    95    85   am
   170    95    96    1
   171    93    94    1
   172    93    92   ar
   173    85    86    2
   174    97    96    1
   175    97   102   am
   176   104   103    1
   177   104   105    2
   178    99    96    1
   179    99   101    1
   180    99   100    1
   181    90    92   ar
   182   103   102    1
   183   103   106    1
   184   102   108    1
   185   106   107    1
   186   108   107    1
