@<TRIPOS>MOLECULE
tmp/2rf2A00.pdb
 144 142 0 0 0
SMALL
GASTEIGER

@<TRIPOS>ATOM
      1  N         11.4960   22.1730   21.5280 N.3    92  PRO92      -0.2116
      2  CA        10.6660   22.2640   20.3240 C.3    92  PRO92       0.1372
      3  C          9.1730   22.2370   20.6220 C.2    92  PRO92       0.2244
      4  O          8.7620   21.6490   21.6080 O.2    92  PRO92      -0.2868
      5  CB        11.0640   21.0120   19.5270 C.3    92  PRO92       0.0268
      6  CG        12.3900   20.6020   20.0370 C.3    92  PRO92       0.0207
      7  CD        12.5510   21.1440   21.4210 C.3    92  PRO92       0.0892
      8  N          7.3650   19.9890   14.4730 N.3    97  LEU97      -0.1231
      9  CA         8.0260   18.7620   14.0570 C.3    97  LEU97       0.1693
     10  C          7.4430   18.2480   12.7370 C.2    97  LEU97       0.2591
     11  O          6.3210   18.5820   12.3710 O.2    97  LEU97      -0.2718
     12  CB         7.8210   17.6800   15.1200 C.3    97  LEU97       0.0284
     13  CG         8.2380   18.0300   16.5480 C.3    97  LEU97       0.0019
     14  CD1        7.7610   16.9180   17.4770 C.3    97  LEU97       0.0001
     15  CD2        9.7100   18.1660   16.5540 C.3    97  LEU97       0.0001
     16  N          8.1920   17.3900   12.0630 N.am   98  LYS98      -0.1980
     17  CA         7.7380   16.7790   10.8330 C.3    98  LYS98       0.1596
     18  C          7.2070   15.4100   11.1650 C.2    98  LYS98       0.2287
     19  O          7.6010   14.7780   12.1620 O.2    98  LYS98      -0.2864
     20  CB         8.8770   16.6540    9.8100 C.3    98  LYS98       0.0298
     21  CG         9.1920   17.9540    9.0310 C.3    98  LYS98       0.0038
     22  CD         9.3360   19.1490    9.9500 C.3    98  LYS98       0.0206
     23  CE        10.7250   19.1760   10.6150 C.3    98  LYS98       0.1093
     24  NZ        10.8490   20.2230   11.6750 N.3    98  LYS98      -0.1314
     25  N          6.7110   11.5240   11.0080 N.3   100  LYS100     -0.1245
     26  CA         7.7540   10.4920   10.8410 C.3   100  LYS100      0.1561
     27  C          7.1340    9.1020   10.7030 C.2   100  LYS100      0.2260
     28  O          6.0380    8.8540   11.2220 O.2   100  LYS100     -0.2867
     29  CB         8.8030   10.5960   11.9750 C.3   100  LYS100      0.0271
     30  CG        10.2060   11.0120   11.5010 C.3   100  LYS100      0.0035
     31  CD        10.4660   12.5040   11.4670 C.3   100  LYS100      0.0206
     32  CE        11.0080   12.8940   10.0990 C.3   100  LYS100      0.1093
     33  NZ        11.8110   14.1430    9.9820 N.3   100  LYS100     -0.1314
     34  N          9.6170    5.9000   14.7590 N.3   103  VAL103     -0.1245
     35  CA        10.3110    6.7030   15.7440 C.3   103  VAL103      0.1561
     36  C         10.6090    5.8870   17.0060 C.2   103  VAL103      0.2260
     37  O          9.7820    5.0820   17.4470 O.2   103  VAL103     -0.2867
     38  CB         9.5880    8.0940   15.9790 C.3   103  VAL103      0.0252
     39  CG1        8.0830    7.9250   16.0600 C.3   103  VAL103      0.0019
     40  CG2       10.1250    8.8120   17.2090 C.3   103  VAL103      0.0019
     41  N         16.4420   11.8710   11.9290 N.3   176  VAL176     -0.1245
     42  CA        16.4010   12.8840   12.9670 C.3   176  VAL176      0.1561
     43  C         16.7160   12.2530   14.3010 C.2   176  VAL176      0.2260
     44  O         16.1770   11.1940   14.6570 O.2   176  VAL176     -0.2867
     45  CB        15.0480   13.7400   13.0580 C.3   176  VAL176      0.0252
     46  CG1       14.8570   14.5760   11.8530 C.3   176  VAL176      0.0019
     47  CG2       13.8410   12.8890   13.3010 C.3   176  VAL176      0.0019
     48  N         16.9250   13.8400   18.2560 N.3   178  TYR178     -0.1241
     49  CA        16.7360   14.9490   19.1650 C.3   178  TYR178      0.1605
     50  C         17.2910   14.5810   20.5410 C.2   178  TYR178      0.2264
     51  O         16.8250   13.6340   21.1710 O.2   178  TYR178     -0.2867
     52  CB        15.2330   15.3500   19.2250 C.3   178  TYR178      0.0534
     53  CG        14.9130   16.3500   20.3160 C.ar  178  TYR178     -0.0201
     54  CD1       15.3340   17.6790   20.2240 C.ar  178  TYR178     -0.0009
     55  CD2       14.2210   15.9520   21.4700 C.ar  178  TYR178     -0.0009
     56  CE1       15.1190   18.5620   21.2710 C.ar  178  TYR178      0.0417
     57  CE2       13.9830   16.8290   22.4980 C.ar  178  TYR178      0.0417
     58  CZ        14.4310   18.1290   22.3970 C.ar  178  TYR178      0.1957
     59  OH        14.1820   18.9870   23.4410 O.3   178  TYR178     -0.2866
     60  N         15.7410   10.8410   20.9310 N.3   185  TYR185     -0.1227
     61  CA        14.5870   10.5080   20.1050 C.3   185  TYR185      0.1736
     62  C         15.1460   10.3950   18.7230 C.2   185  TYR185      0.2595
     63  O         15.9410   11.2500   18.2780 O.2   185  TYR185     -0.2718
     64  CB        13.5350   11.5960   20.1190 C.3   185  TYR185      0.0548
     65  CG        12.8260   11.6350   21.3900 C.ar  185  TYR185     -0.0200
     66  CD1       13.4180   12.2130   22.5300 C.ar  185  TYR185     -0.0009
     67  CD2       11.6030   11.0000   21.5280 C.ar  185  TYR185     -0.0009
     68  CE1       12.7400   12.1980   23.7840 C.ar  185  TYR185      0.0417
     69  CE2       10.9360   10.9930   22.7500 C.ar  185  TYR185      0.0417
     70  CZ        11.5040   11.5900   23.8690 C.ar  185  TYR185      0.1957
     71  OH        10.7940   11.5580   25.0660 O.3   185  TYR185     -0.2866
     72  N         14.7880    9.2840   18.0870 N.am  186  VAL186     -0.1966
     73  CA        15.2970    8.9450   16.7640 C.3   186  VAL186      0.1727
     74  C         14.1100    8.7190   15.8630 C.2   186  VAL186      0.2616
     75  O         13.1960    7.9100   16.1700 O.2   186  VAL186     -0.2715
     76  CB        16.2520    7.7090   16.8240 C.3   186  VAL186      0.0290
     77  CG1       17.0240    7.5550   15.5440 C.3   186  VAL186      0.0023
     78  CG2       17.2430    7.9060   17.9430 C.3   186  VAL186      0.0023
     79  N         14.1050    9.4840   14.7770 N.am  187  GLY187     -0.1955
     80  CA        13.0340    9.4000   13.8100 C.3   187  GLY187      0.1869
     81  C         13.5190    9.2510   12.3930 C.2   187  GLY187      0.2309
     82  O         14.5290    9.8250   11.9670 O.2   187  GLY187     -0.2863
     83  N          4.8320    8.3930   22.7720 N.3   224  PHE224     -0.1241
     84  CA         5.8450    8.8730   23.7210 C.3   224  PHE224      0.1605
     85  C          5.3480   10.0650   24.5250 C.2   224  PHE224      0.2264
     86  O          4.9720   11.0780   23.9610 O.2   224  PHE224     -0.2867
     87  CB         7.1010    9.2760   22.9530 C.3   224  PHE224      0.0534
     88  CG         7.7370    8.1390   22.2030 C.ar  224  PHE224     -0.0203
     89  CD1        8.1800    7.0100   22.8670 C.ar  224  PHE224     -0.0042
     90  CD2        7.8790    8.1810   20.8360 C.ar  224  PHE224     -0.0042
     91  CE1        8.7610    5.9530   22.1690 C.ar  224  PHE224     -0.0003
     92  CE2        8.4770    7.1350   20.1480 C.ar  224  PHE224     -0.0003
     93  CZ         8.8900    6.0200   20.8030 C.ar  224  PHE224     -0.0000
     94  N          6.0900   13.1040   26.3760 N.3   226  TRP226     -0.1241
     95  CA         7.2550   13.9760   26.4590 C.3   226  TRP226      0.1605
     96  C          6.8550   15.4360   26.6830 C.2   226  TRP226      0.2264
     97  O          6.0480   15.9780   25.9290 O.2   226  TRP226     -0.2867
     98  CB         8.0570   13.8230   25.1650 C.3   226  TRP226      0.0550
     99  CG         9.1780   14.8360   24.9990 C.ar  226  TRP226      0.0003
    100  CD1       10.4240   14.7830   25.5520 C.ar  226  TRP226      0.0946
    101  CD2        9.1400   16.0280   24.1970 C.ar  226  TRP226      0.0152
    102  NE1       11.1470   15.8920   25.1900 N.ar  226  TRP226     -0.2442
    103  CE2       10.3900   16.6710   24.3500 C.ar  226  TRP226      0.0810
    104  CE3        8.1390   16.6640   23.4460 C.ar  226  TRP226      0.0012
    105  CZ2       10.7040   17.8700   23.7050 C.ar  226  TRP226      0.0191
    106  CZ3        8.4450   17.9010   22.8360 C.ar  226  TRP226      0.0001
    107  CH2        9.7240   18.4780   22.9720 C.ar  226  TRP226      0.0015
    108  N          3.0810   12.0940   21.9220 N.3   231  LEU231     -0.1231
    109  CA         3.5060   12.0600   20.5240 C.3   231  LEU231      0.1693
    110  C          3.3390   10.7450   19.7990 C.2   231  LEU231      0.2592
    111  O          3.9940    9.7530   20.1340 O.2   231  LEU231     -0.2718
    112  CB         4.9820   12.5060   20.3790 C.3   231  LEU231      0.0284
    113  CG         5.4980   13.7170   21.1720 C.3   231  LEU231      0.0019
    114  CD1        6.9970   13.8540   21.0080 C.3   231  LEU231      0.0001
    115  CD2        4.7880   14.9870   20.7190 C.3   231  LEU231      0.0001
    116  N          2.5890   10.7870   18.7000 N.am  232  HIS232     -0.1962
    117  CA         2.4670    9.6540   17.7780 C.3   232  HIS232      0.1772
    118  C          3.2840   10.0680   16.5550 C.2   232  HIS232      0.2462
    119  O          3.6190   11.2340   16.4070 O.2   232  HIS232     -0.2730
    120  CB         1.0160    9.4090   17.4150 C.3   232  HIS232      0.0785
    121  CG         0.1620    9.0690   18.5900 C.ar  232  HIS232      0.0821
    122  ND1       -0.1660    9.9870   19.5620 N.ar  232  HIS232     -0.2267
    123  CD2       -0.4420    7.9140   18.9500 C.ar  232  HIS232      0.1154
    124  CE1       -0.9360    9.4150   20.4710 C.ar  232  HIS232      0.1986
    125  NE2       -1.0830    8.1460   20.1450 N.ar  232  HIS232     -0.2212
    126  N          3.6700    9.1200   15.7000 N.am  233  PRO233     -0.2727
    127  CA         4.4790    9.5270   14.5310 C.3   233  PRO233      0.1402
    128  C          3.7380   10.3930   13.4860 C.2   233  PRO233      0.2269
    129  O          4.3770   11.0580   12.6520 O.2   233  PRO233     -0.2865
    130  CB         4.8680    8.1890   13.8870 C.3   233  PRO233      0.0296
    131  CG         3.8150    7.1780   14.3780 C.3   233  PRO233      0.0237
    132  CD         3.4020    7.6590   15.7430 C.3   233  PRO233      0.0939
    133  N          1.3500   17.4490   12.1310 N.3   315  TYR315     -0.1241
    134  CA         2.7070   17.9640   12.0750 C.3   315  TYR315      0.1605
    135  C          2.9210   18.8930   10.8880 C.2   315  TYR315      0.2264
    136  O          2.0250   19.1080   10.0960 O.2   315  TYR315     -0.2867
    137  CB         3.7360   16.8210   12.0670 C.3   315  TYR315      0.0534
    138  CG         3.8120   16.0590   13.3870 C.ar  315  TYR315     -0.0201
    139  CD1        4.2040   16.7010   14.5530 C.ar  315  TYR315     -0.0009
    140  CD2        3.5130   14.6930   13.4610 C.ar  315  TYR315     -0.0009
    141  CE1        4.3070   16.0260   15.7450 C.ar  315  TYR315      0.0417
    142  CE2        3.6600   13.9920   14.6530 C.ar  315  TYR315      0.0417
    143  CZ         4.0620   14.6810   15.7980 C.ar  315  TYR315      0.1957
    144  OH         4.0980   14.0650   17.0180 O.3   315  TYR315     -0.2866
@<TRIPOS>BOND
     1    21    20    1
     2    21    22    1
     3    20    17    1
     4    22    23    1
     5    33    32    1
     6   136   135    2
     7    32    31    1
     8    23    24    1
     9    27    26    1
    10    27    28    2
    11    17    18    1
    12    17    16    1
    13    26    25    1
    14    26    29    1
    15   135   134    1
    16    18    19    2
    17    31    30    1
    18    30    29    1
    19    46    45    1
    20    41    42    1
    21    82    81    2
    22    16    10   am
    23   137   134    1
    24   137   138    1
    25   134   133    1
    26    11    10    2
    27    81    80    1
    28   129   128    2
    29    10     9    1
    30    42    45    1
    31    42    43    1
    32    45    47    1
    33   138   140   ar
    34   138   139   ar
    35   140   142   ar
    36   128   127    1
    37    80    79    1
    38   130   131    1
    39   130   127    1
    40     9     8    1
    41     9    12    1
    42    43    44    2
    43   131   132    1
    44   127   126    1
    45   139   141   ar
    46   142   143   ar
    47    34    35    1
    48    79    74   am
    49    12    13    1
    50    77    76    1
    51   126   132    1
    52   126   118   am
    53    35    38    1
    54    35    36    1
    55   141   143   ar
    56   143   144    1
    57    74    75    2
    58    74    73    1
    59    38    39    1
    60    38    40    1
    61   119   118    2
    62    13    15    1
    63    13    14    1
    64   118   117    1
    65    73    76    1
    66    73    72    1
    67    76    78    1
    68    36    37    2
    69   120   117    1
    70   120   121    1
    71   117   116    1
    72    72    62   am
    73    48    49    1
    74    63    62    2
    75   121   123   ar
    76   121   122   ar
    77   116   110   am
    78    62    61    1
    79   123   125   ar
    80    49    52    1
    81    49    50    1
    82    52    53    1
    83     5     6    1
    84     5     2    1
    85   122   124   ar
    86   110   111    2
    87   110   109    1
    88     6     7    1
    89    61    64    1
    90    61    60    1
    91    64    65    1
    92   125   124   ar
    93    92    93   ar
    94    92    90   ar
    95    54    53   ar
    96    54    56   ar
    97    53    55   ar
    98     2     3    1
    99     2     1    1
   100   112   109    1
   101   112   113    1
   102   109   108    1
   103    50    51    2
   104     3     4    2
   105   115   113    1
   106    93    91   ar
   107    90    88   ar
   108   114   113    1
   109    56    58   ar
   110    65    67   ar
   111    65    66   ar
   112     7     1    1
   113    55    57   ar
   114    67    69   ar
   115    91    89   ar
   116    88    89   ar
   117    88    87    1
   118    58    57   ar
   119    58    59    1
   120    66    68   ar
   121    69    70   ar
   122    83    84    1
   123   106   107   ar
   124   106   104   ar
   125    87    84    1
   126   107   105   ar
   127   104   101   ar
   128   105   103   ar
   129    84    85    1
   130    68    70   ar
   131    70    71    1
   132    86    85    2
   133   101   103   ar
   134   101    99   ar
   135   103   102   ar
   136    99    98    1
   137    99   100   ar
   138    98    95    1
   139   102   100   ar
   140    97    96    2
   141    94    95    1
   142    95    96    1
