@<TRIPOS>MOLECULE
tmp/2rf7D04.pdb
 218 215 0 0 0
SMALL
GASTEIGER

@<TRIPOS>ATOM
      1  N         69.7450   31.9260  -63.8110 N.3    54  LYS54      -0.1231
      2  CA        68.9870   32.1320  -62.5610 C.3    54  LYS54       0.1681
      3  C         68.3460   33.5400  -62.4870 C.2    54  LYS54       0.2471
      4  O         68.8590   34.4840  -63.0930 O.2    54  LYS54      -0.2730
      5  CB        69.8930   31.8810  -61.3620 C.3    54  LYS54       0.0284
      6  CG        70.2540   30.4030  -61.1930 C.3    54  LYS54       0.0035
      7  CD        71.1050   30.1990  -59.9680 C.3    54  LYS54       0.0206
      8  CE        71.6090   28.7690  -59.8810 C.3    54  LYS54       0.1093
      9  NZ        70.4810   27.8120  -59.9240 N.3    54  LYS54      -0.1314
     10  N         67.2220   33.6940  -61.7410 N.am   55  PRO55      -0.2506
     11  CA        66.6550   35.0450  -61.7070 C.3    55  PRO55       0.1487
     12  C         67.5390   36.0870  -61.0110 C.2    55  PRO55       0.2276
     13  O         68.4070   35.7460  -60.2150 O.2    55  PRO55      -0.2865
     14  CB        65.2920   34.8740  -60.9960 C.3    55  PRO55       0.0556
     15  CG        65.2870   33.4770  -60.4220 C.2    55  PRO55      -0.0078
     16  CD        66.4550   32.7140  -60.9470 C.2    55  PRO55       0.0634
     17  N         49.8330   37.8610  -51.8920 N.3   170  SER170     -0.1217
     18  CA        50.5190   36.7680  -52.5780 C.3   170  SER170      0.1889
     19  C         50.0490   36.6550  -54.0160 C.2   170  SER170      0.2288
     20  O         50.8460   36.2930  -54.8920 O.2   170  SER170     -0.2866
     21  CB        50.3140   35.4300  -51.8390 C.3   170  SER170      0.2089
     22  OG        51.0560   35.4310  -50.6230 O.3   170  SER170     -0.2183
     23  N         51.9740   38.5880  -56.5280 N.3   173  CYS173     -0.1235
     24  CA        53.1630   37.8890  -56.9900 C.3   173  CYS173      0.1677
     25  C         52.7290   36.7650  -57.9440 C.2   173  CYS173      0.2270
     26  O         53.3950   36.4830  -58.9390 O.2   173  CYS173     -0.2867
     27  CB        53.9370   37.3280  -55.7830 C.3   173  CYS173      0.0956
     28  SG        54.1970   38.5260  -54.4290 S.3   173  CYS173     -0.0801
     29  N         54.7480   34.8510  -60.9900 N.3   177  HIS177     -0.1241
     30  CA        55.4870   33.7230  -60.4120 C.3   177  HIS177      0.1621
     31  C         54.6920   32.4390  -60.3930 C.2   177  HIS177      0.2264
     32  O         54.3690   31.9100  -59.3320 O.2   177  HIS177     -0.2867
     33  CB        56.0140   34.0860  -59.0330 C.3   177  HIS177      0.0745
     34  CG        57.1260   35.0850  -59.0770 C.ar  177  HIS177      0.0817
     35  ND1       58.4460   34.7170  -59.1830 N.ar  177  HIS177     -0.2268
     36  CD2       57.1090   36.4410  -59.0780 C.ar  177  HIS177      0.1154
     37  CE1       59.2040   35.8060  -59.2200 C.ar  177  HIS177      0.1986
     38  NE2       58.4140   36.8700  -59.1830 N.ar  177  HIS177     -0.2212
     39  N         56.0820   29.2660  -58.2600 N.3   230  GLU230     -0.1231
     40  CA        56.1060   29.6910  -56.8650 C.3   230  GLU230      0.1699
     41  C         54.6870   29.7610  -56.2360 C.2   230  GLU230      0.2592
     42  O         54.4940   29.2890  -55.1070 O.2   230  GLU230     -0.2718
     43  CB        56.8360   31.0260  -56.6790 C.3   230  GLU230      0.0402
     44  CG        58.3630   31.0090  -56.7170 C.3   230  GLU230      0.1161
     45  CD        58.9310   30.9950  -58.1490 C.2   230  GLU230      0.3649
     46  OE1       59.7760   30.1200  -58.4600 O.co2 230  GLU230     -0.2457
     47  OE2       58.5300   31.8450  -58.9660 O.co2 230  GLU230     -0.2457
     48  N         53.7030   30.3400  -56.9350 N.am  231  TYR231     -0.1976
     49  CA        52.3770   30.4640  -56.3290 C.3   231  TYR231      0.1639
     50  C         51.8610   29.0740  -55.9700 C.2   231  TYR231      0.2290
     51  O         51.4800   28.8120  -54.8110 O.2   231  TYR231     -0.2864
     52  CB        51.3590   31.3020  -57.1520 C.3   231  TYR231      0.0560
     53  CG        50.0700   31.6120  -56.3510 C.ar  231  TYR231     -0.0198
     54  CD1       49.9820   32.7270  -55.5020 C.ar  231  TYR231     -0.0009
     55  CD2       48.9850   30.7510  -56.4130 C.ar  231  TYR231     -0.0009
     56  CE1       48.8160   32.9800  -54.7450 C.ar  231  TYR231      0.0417
     57  CE2       47.8230   30.9920  -55.6820 C.ar  231  TYR231      0.0417
     58  CZ        47.7440   32.1020  -54.8580 C.ar  231  TYR231      0.1957
     59  OH        46.5720   32.2780  -54.1480 O.3   231  TYR231     -0.2866
     60  N         54.2780   27.3770  -53.1620 N.3   234  TRP234     -0.1241
     61  CA        54.0140   28.0940  -51.9090 C.3   234  TRP234      0.1605
     62  C         52.6660   27.6790  -51.2770 C.2   234  TRP234      0.2264
     63  O         52.5830   27.4740  -50.0580 O.2   234  TRP234     -0.2867
     64  CB        54.1190   29.6180  -52.0990 C.3   234  TRP234      0.0550
     65  CG        53.4900   30.4220  -50.9480 C.ar  234  TRP234      0.0003
     66  CD1       54.1130   30.8220  -49.8080 C.ar  234  TRP234      0.0946
     67  CD2       52.1260   30.8750  -50.8470 C.ar  234  TRP234      0.0152
     68  NE1       53.2380   31.4950  -49.0000 N.ar  234  TRP234     -0.2442
     69  CE2       52.0050   31.5370  -49.6060 C.ar  234  TRP234      0.0810
     70  CE3       50.9990   30.7940  -51.6920 C.ar  234  TRP234      0.0012
     71  CZ2       50.8070   32.1400  -49.1900 C.ar  234  TRP234      0.0191
     72  CZ3       49.8000   31.3700  -51.2750 C.ar  234  TRP234      0.0001
     73  CH2       49.7080   32.0220  -50.0230 C.ar  234  TRP234      0.0015
     74  N         54.2030   26.9090  -44.8520 N.3   239  HIS239     -0.1241
     75  CA        54.0090   28.3450  -44.7560 C.3   239  HIS239      0.1621
     76  C         52.7220   28.7780  -45.4160 C.2   239  HIS239      0.2264
     77  O         51.8760   29.4060  -44.7680 O.2   239  HIS239     -0.2867
     78  CB        55.2150   29.0930  -45.2500 C.3   239  HIS239      0.0745
     79  CG        56.3170   29.1320  -44.2480 C.ar  239  HIS239      0.0817
     80  ND1       57.4330   28.3290  -44.3420 N.ar  239  HIS239     -0.2268
     81  CD2       56.4630   29.8540  -43.1110 C.ar  239  HIS239      0.1154
     82  CE1       58.2360   28.5760  -43.3240 C.ar  239  HIS239      0.1986
     83  NE2       57.6610   29.4800  -42.5480 N.ar  239  HIS239     -0.2212
     84  N         51.1750   32.3840  -44.3660 N.3   244  VAL244     -0.1231
     85  CA        52.3860   33.1980  -44.3140 C.3   244  VAL244      0.1692
     86  C         52.5660   33.6360  -45.7880 C.2   244  VAL244      0.2593
     87  O         52.7720   32.7910  -46.6560 O.2   244  VAL244     -0.2718
     88  CB        53.6080   32.3840  -43.7920 C.3   244  VAL244      0.0266
     89  CG1       54.8630   33.2390  -43.7360 C.3   244  VAL244      0.0020
     90  CG2       53.3190   31.7860  -42.3980 C.3   244  VAL244      0.0020
     91  N         52.4600   34.9430  -46.0710 N.am  245  THR245     -0.1939
     92  CA        52.4220   35.4520  -47.4620 C.3   245  THR245      0.2028
     93  C         53.8160   35.6560  -48.0320 C.2   245  THR245      0.2642
     94  O         54.7850   35.7010  -47.2830 O.2   245  THR245     -0.2714
     95  CB        51.7070   36.8310  -47.5200 C.3   245  THR245      0.1808
     96  OG1       52.5660   37.8050  -46.9050 O.3   245  THR245     -0.2208
     97  CG2       50.4040   36.7780  -46.7830 C.3   245  THR245      0.0379
     98  N         53.9160   35.8320  -49.3560 N.am  246  CYS246     -0.1967
     99  CA        55.2080   36.1210  -50.0030 C.3   246  CYS246      0.1712
    100  C         55.8750   37.3340  -49.3740 C.2   246  CYS246      0.2296
    101  O         57.0910   37.3660  -49.1700 O.2   246  CYS246     -0.2864
    102  CB        55.0700   36.3210  -51.5330 C.3   246  CYS246      0.0983
    103  SG        53.9070   35.2680  -52.4020 S.3   246  CYS246     -0.0798
    104  N         57.9370   37.4480  -45.9840 N.3   249  CYS249     -0.1221
    105  CA        59.3370   37.1150  -46.1170 C.3   249  CYS249      0.1808
    106  C         60.0750   38.0360  -47.0820 C.2   249  CYS249      0.2601
    107  O         61.2010   38.4470  -46.7950 O.2   249  CYS249     -0.2717
    108  CB        59.5100   35.6410  -46.5390 C.3   249  CYS249      0.0970
    109  SG        58.8030   34.3590  -45.3680 S.3   249  CYS249     -0.0800
    110  N         59.4500   38.3510  -48.2170 N.am  250  HIS250     -0.1975
    111  CA        60.1470   39.0570  -49.3220 C.3   250  HIS250      0.1656
    112  C         60.0280   40.6000  -49.3110 C.2   250  HIS250      0.2291
    113  O         60.9530   41.3080  -49.7430 O.2   250  HIS250     -0.2864
    114  CB        59.6910   38.4960  -50.6730 C.3   250  HIS250      0.0771
    115  CG        60.2700   37.1540  -50.9910 C.ar  250  HIS250      0.0820
    116  ND1       61.6150   36.9630  -51.2310 N.ar  250  HIS250     -0.2267
    117  CD2       59.6920   35.9370  -51.0820 C.ar  250  HIS250      0.1154
    118  CE1       61.8350   35.6870  -51.4850 C.ar  250  HIS250      0.1986
    119  NE2       60.6870   35.0390  -51.3930 N.ar  250  HIS250     -0.2212
    120  N         63.9620   40.7290  -52.5310 N.3   268  GLY268     -0.1210
    121  CA        65.1850   39.9210  -52.6290 C.3   268  GLY268      0.1956
    122  C         65.2320   38.7210  -51.6850 C.2   268  GLY268      0.2612
    123  O         64.1840   38.0930  -51.3900 O.2   268  GLY268     -0.2717
    124  N         66.4370   38.3820  -51.2260 N.am  269  ASN269     -0.1960
    125  CA        66.6020   37.2230  -50.3430 C.3   269  ASN269      0.1804
    126  C         66.2040   37.6360  -48.9220 C.2   269  ASN269      0.2463
    127  O         66.8420   38.5230  -48.3540 O.2   269  ASN269     -0.2730
    128  CB        68.0390   36.6850  -50.3610 C.3   269  ASN269      0.1195
    129  CG        68.1640   35.3340  -49.6500 C.2   269  ASN269      0.2630
    130  OD1       67.5260   35.0970  -48.6250 O.2   269  ASN269     -0.2716
    131  ND2       68.9590   34.4320  -50.2150 N.am  269  ASN269     -0.0877
    132  N         65.1530   36.9980  -48.3520 N.am  270  PRO270     -0.2716
    133  CA        64.7320   37.2830  -46.9610 C.3   270  PRO270      0.1536
    134  C         65.8340   37.1620  -45.8790 C.2   270  PRO270      0.2598
    135  O         65.7370   37.8160  -44.8500 O.2   270  PRO270     -0.2715
    136  CB        63.5850   36.2930  -46.7170 C.3   270  PRO270      0.0310
    137  CG        63.0430   36.0110  -48.0910 C.3   270  PRO270      0.0237
    138  CD        64.2810   35.9910  -48.9780 C.3   270  PRO270      0.0939
    139  N         66.8730   36.3700  -46.1120 N.am  271  PHE271     -0.1974
    140  CA        67.9730   36.2830  -45.1310 C.3   271  PHE271      0.1639
    141  C         68.8200   37.5580  -44.9820 C.2   271  PHE271      0.2290
    142  O         69.5490   37.7010  -44.0000 O.2   271  PHE271     -0.2864
    143  CB        68.8720   35.0620  -45.3970 C.3   271  PHE271      0.0560
    144  CG        68.2650   33.7600  -44.9590 C.ar  271  PHE271     -0.0200
    145  CD1       67.8700   32.8110  -45.9020 C.ar  271  PHE271     -0.0042
    146  CD2       68.0830   33.4820  -43.5970 C.ar  271  PHE271     -0.0042
    147  CE1       67.3120   31.5810  -45.5110 C.ar  271  PHE271     -0.0003
    148  CE2       67.5170   32.2850  -43.1820 C.ar  271  PHE271     -0.0003
    149  CZ        67.1330   31.3200  -44.1440 C.ar  271  PHE271     -0.0000
    150  N         62.1690   36.2540  -40.8930 N.3   278  CYS278     -0.1235
    151  CA        61.9500   35.0050  -40.1400 C.3   278  CYS278      0.1677
    152  C         61.7650   35.2820  -38.6520 C.2   278  CYS278      0.2270
    153  O         60.8010   34.8000  -38.0500 O.2   278  CYS278     -0.2867
    154  CB        63.1090   34.0160  -40.3350 C.3   278  CYS278      0.0956
    155  SG        63.7980   33.9820  -41.9910 S.3   278  CYS278     -0.0801
    156  N         67.7420   25.4060  -44.3250 N.3   293  VAL293     -0.1231
    157  CA        67.3420   25.6610  -45.7080 C.3   293  VAL293      0.1692
    158  C         68.3840   25.0690  -46.6710 C.2   293  VAL293      0.2591
    159  O         68.0210   24.4360  -47.6600 O.2   293  VAL293     -0.2718
    160  CB        67.0630   27.1730  -45.9530 C.3   293  VAL293      0.0266
    161  CG1       66.7790   27.4720  -47.4440 C.3   293  VAL293      0.0020
    162  CG2       65.8710   27.6280  -45.0980 C.3   293  VAL293      0.0020
    163  N         69.6630   25.2680  -46.3420 N.am  294  ALA294     -0.1980
    164  CA        70.7640   24.8340  -47.1640 C.3   294  ALA294      0.1597
    165  C         70.8140   23.3030  -47.2570 C.2   294  ALA294      0.2287
    166  O         71.2180   22.7380  -48.2880 O.2   294  ALA294     -0.2864
    167  CB        72.0730   25.3840  -46.6220 C.3   294  ALA294      0.0319
    168  N         68.1490   22.3510  -49.6690 N.3   297  LYS297     -0.1245
    169  CA        68.6350   22.6710  -51.0120 C.3   297  LYS297      0.1561
    170  C         69.4800   21.5320  -51.5590 C.2   297  LYS297      0.2260
    171  O         69.2670   21.1070  -52.6960 O.2   297  LYS297     -0.2867
    172  CB        69.4340   23.9860  -51.0460 C.3   297  LYS297      0.0271
    173  CG        69.5280   24.5990  -52.4560 C.3   297  LYS297      0.0035
    174  CD        70.4460   25.8070  -52.4850 C.3   297  LYS297      0.0206
    175  CE        70.4760   26.4240  -53.8770 C.3   297  LYS297      0.1093
    176  NZ        71.0580   27.7930  -53.7940 N.3   297  LYS297     -0.1314
    177  N         63.3160   28.0970  -58.2470 N.3   352  HIS352     -0.1226
    178  CA        64.5250   28.1080  -57.4860 C.3   352  HIS352      0.1752
    179  C         64.2870   28.2510  -55.9880 C.2   352  HIS352      0.2596
    180  O         65.2340   28.1470  -55.2440 O.2   352  HIS352     -0.2718
    181  CB        65.4590   29.2110  -57.9650 C.3   352  HIS352      0.0759
    182  CG        65.8920   29.0320  -59.3800 C.ar  352  HIS352      0.0818
    183  ND1       65.2720   29.6800  -60.4300 N.ar  352  HIS352     -0.2268
    184  CD2       66.8500   28.2480  -59.9290 C.ar  352  HIS352      0.1154
    185  CE1       65.8390   29.3070  -61.5660 C.ar  352  HIS352      0.1986
    186  NE2       66.7990   28.4440  -61.2900 N.ar  352  HIS352     -0.2212
    187  N         63.0400   28.4840  -55.5690 N.am  353  GLY353     -0.1957
    188  CA        62.7150   28.6180  -54.1410 C.3   353  GLY353      0.1869
    189  C         62.1650   27.3540  -53.5010 C.2   353  GLY353      0.2309
    190  O         61.8500   27.3680  -52.3250 O.2   353  GLY353     -0.2863
    191  N         63.0950   24.4800  -52.2850 N.3   355  HIS355     -0.1226
    192  CA        63.6830   23.8480  -51.0940 C.3   355  HIS355      0.1752
    193  C         63.3010   24.6240  -49.8160 C.2   355  HIS355      0.2596
    194  O         63.4260   24.0860  -48.6900 O.2   355  HIS355     -0.2718
    195  CB        65.2000   23.7900  -51.2480 C.3   355  HIS355      0.0759
    196  CG        65.7960   25.1200  -51.5350 C.ar  355  HIS355      0.0818
    197  ND1       66.4380   25.8720  -50.5730 N.ar  355  HIS355     -0.2268
    198  CD2       65.7740   25.8780  -52.6560 C.ar  355  HIS355      0.1154
    199  CE1       66.8170   27.0220  -51.1000 C.ar  355  HIS355      0.1986
    200  NE2       66.4230   27.0510  -52.3630 N.ar  355  HIS355     -0.2212
    201  N         62.8280   25.8650  -50.0070 N.am  356  MET356     -0.1965
    202  CA        62.3310   26.7230  -48.9250 C.3   356  MET356      0.1736
    203  C         60.7960   26.6980  -48.8540 C.2   356  MET356      0.2616
    204  O         60.2370   26.4420  -47.7750 O.2   356  MET356     -0.2715
    205  CB        62.8790   28.1600  -49.0470 C.3   356  MET356      0.0427
    206  CG        62.2380   29.2010  -48.1020 C.3   356  MET356      0.0599
    207  SD        62.6960   28.9670  -46.3510 S.3   356  MET356     -0.1393
    208  CE        61.1220   29.3950  -45.5550 C.3   356  MET356      0.0692
    209  N         60.1100   26.8970  -49.9820 N.am  357  HIS357     -0.1973
    210  CA        58.6350   27.0790  -49.9540 C.3   357  HIS357      0.1656
    211  C         57.8370   25.7910  -49.7070 C.2   357  HIS357      0.2291
    212  O         56.7930   25.8370  -49.0540 O.2   357  HIS357     -0.2864
    213  CB        58.0910   27.6630  -51.2560 C.3   357  HIS357      0.0771
    214  CG        58.7400   28.9310  -51.7010 C.ar  357  HIS357      0.0820
    215  ND1       58.9630   29.2090  -53.0340 N.ar  357  HIS357     -0.2267
    216  CD2       59.1850   30.0090  -51.0080 C.ar  357  HIS357      0.1154
    217  CE1       59.5220   30.4010  -53.1420 C.ar  357  HIS357      0.1986
    218  NE2       59.6600   30.9130  -51.9290 N.ar  357  HIS357     -0.2212
@<TRIPOS>BOND
     1     1     2    1
     2     4     3    2
     3     2     3    1
     4     2     5    1
     5     3    10   am
     6    10    11    1
     7    10    16    1
     8    11    12    1
     9    11    14    1
    10   185   186   ar
    11   185   183   ar
    12     5     6    1
    13   186   184   ar
    14     6     7    1
    15    12    13    2
    16    14    15    1
    17    29    30    1
    18    16    15    2
    19   183   182   ar
    20    30    31    1
    21    30    33    1
    22    31    32    2
    23     7     8    1
    24   184   182   ar
    25     9     8    1
    26   182   181    1
    27    37    35   ar
    28    37    38   ar
    29    35    34   ar
    30    38    36   ar
    31    36    34   ar
    32    34    33    1
    33    47    45   ar
    34    26    25    2
    35    46    45   ar
    36    39    40    1
    37   177   178    1
    38    45    44    1
    39   181   178    1
    40    25    24    1
    41   178   179    1
    42    52    53    1
    43    52    49    1
    44    24    23    1
    45    24    27    1
    46    48    49    1
    47    48    41   am
    48    40    43    1
    49    40    41    1
    50    44    43    1
    51    55    53   ar
    52    55    57   ar
    53    53    54   ar
    54    49    50    1
    55    41    42    2
    56   179   187   am
    57   179   180    2
    58    50    51    2
    59    27    28    1
    60    57    58   ar
    61   187   188    1
    62    54    56   ar
    63    20    19    2
    64    58    56   ar
    65    58    59    1
    66   188   189    1
    67    19    18    1
    68   175   176    1
    69   175   174    1
    70   189   190    2
    71    60    61    1
    72   217   215   ar
    73   217   218   ar
    74   215   214   ar
    75   171   170    2
    76   198   200   ar
    77   198   196   ar
    78   121   120    1
    79   121   122    1
    80    18    17    1
    81    18    21    1
    82   174   173    1
    83   173   172    1
    84   103   102    1
    85   200   199   ar
    86   191   192    1
    87    64    61    1
    88    64    65    1
    89   218   216   ar
    90    61    62    1
    91    21    22    1
    92   214   213    1
    93   214   216   ar
    94    70    72   ar
    95    70    67   ar
    96   122   123    2
    97   122   124   am
    98   170   169    1
    99   196   195    1
   100   196   197   ar
   101   102    99    1
   102   118   119   ar
   103   118   116   ar
   104   119   117   ar
   105    62    63    2
   106    72    73   ar
   107   213   210    1
   108   195   192    1
   109   116   115   ar
   110   124   125    1
   111   199   197   ar
   112   192   193    1
   113   117   115   ar
   114   172   169    1
   115   169   168    1
   116   115   114    1
   117    65    67   ar
   118    65    66   ar
   119    67    69   ar
   120   114   111    1
   121   128   125    1
   122   128   129    1
   123   125   126    1
   124   131   129   am
   125    73    71   ar
   126   201   193   am
   127   201   202    1
   128    99   100    1
   129    99    98    1
   130   209   210    1
   131   209   203   am
   132   210   211    1
   133   193   194    2
   134    66    68   ar
   135   113   112    2
   136   211   212    2
   137   129   130    2
   138    69    71   ar
   139    69    68   ar
   140   100   101    2
   141    98    93   am
   142   111   112    1
   143   111   110    1
   144   205   202    1
   145   205   206    1
   146   138   132    1
   147   138   137    1
   148   202   203    1
   149   126   127    2
   150   126   132   am
   151   203   204    2
   152   132   133    1
   153   166   165    2
   154   110   106   am
   155   206   207    1
   156   137   136    1
   157    93    92    1
   158    93    94    2
   159   159   158    2
   160    95    92    1
   161    95    96    1
   162    95    97    1
   163    92    91    1
   164   161   160    1
   165   165   164    1
   166   164   167    1
   167   164   163    1
   168   106   107    2
   169   106   105    1
   170   133   136    1
   171   133   134    1
   172   158   163   am
   173   158   157    1
   174    87    86    2
   175   108   105    1
   176   108   109    1
   177   207   208    1
   178   105   104    1
   179   139   134   am
   180   139   140    1
   181    91    86   am
   182   160   157    1
   183   160   162    1
   184   145   147   ar
   185   145   144   ar
   186   134   135    2
   187    86    85    1
   188   157   156    1
   189   147   149   ar
   190    76    77    2
   191    76    75    1
   192   143   140    1
   193   143   144    1
   194    78    75    1
   195    78    79    1
   196   140   141    1
   197   141   142    2
   198   144   146   ar
   199    74    75    1
   200    84    85    1
   201    80    79   ar
   202    80    82   ar
   203    85    88    1
   204    79    81   ar
   205   149   148   ar
   206    88    89    1
   207    88    90    1
   208   146   148   ar
   209    82    83   ar
   210    81    83   ar
   211   155   154    1
   212   150   151    1
   213   154   151    1
   214   151   152    1
   215   152   153    2
