@<TRIPOS>MOLECULE
tmp/2rf7D05.pdb
 150 143 0 0 0
SMALL
GASTEIGER

@<TRIPOS>ATOM
      1  N         54.0960   24.3730  -45.9610 N.3   238  ILE238     -0.1231
      2  CA        53.5330   24.5930  -44.6190 C.3   238  ILE238      0.1692
      3  C         53.2930   26.0880  -44.3520 C.2   238  ILE238      0.2592
      4  O         52.2860   26.4960  -43.7230 O.2   238  ILE238     -0.2718
      5  CB        54.4080   23.8850  -43.5230 C.3   238  ILE238      0.0266
      6  CG1       53.6000   22.9170  -42.6120 C.3   238  ILE238      0.0019
      7  CG2       55.3640   24.8510  -42.7930 C.3   238  ILE238      0.0020
      8  CD1       52.1490   23.1310  -42.4130 C.3   238  ILE238      0.0001
      9  N         54.2030   26.9090  -44.8520 N.am  239  HIS239     -0.1976
     10  CA        54.0090   28.3450  -44.7560 C.3   239  HIS239      0.1656
     11  C         52.7220   28.7780  -45.4160 C.2   239  HIS239      0.2291
     12  O         51.8760   29.4060  -44.7680 O.2   239  HIS239     -0.2864
     13  CB        55.2150   29.0930  -45.2500 C.3   239  HIS239      0.0771
     14  CG        56.3170   29.1320  -44.2480 C.ar  239  HIS239      0.0820
     15  ND1       57.4330   28.3290  -44.3420 N.ar  239  HIS239     -0.2267
     16  CD2       56.4630   29.8540  -43.1110 C.ar  239  HIS239      0.1154
     17  CE1       58.2360   28.5760  -43.3240 C.ar  239  HIS239      0.1986
     18  NE2       57.6610   29.4800  -42.5480 N.ar  239  HIS239     -0.2212
     19  N         49.5080   28.0490  -43.6660 N.3   242  ASN242     -0.1240
     20  CA        49.2890   28.9420  -42.5310 C.3   242  ASN242      0.1653
     21  C         49.1960   30.4200  -42.9000 C.2   242  ASN242      0.2266
     22  O         49.4590   31.2770  -42.0590 O.2   242  ASN242     -0.2867
     23  CB        50.4280   28.7800  -41.5220 C.3   242  ASN242      0.1155
     24  CG        50.3140   27.4950  -40.7450 C.2   242  ASN242      0.2627
     25  OD1       49.4750   27.3790  -39.8430 O.2   242  ASN242     -0.2716
     26  ND2       51.1200   26.4930  -41.1220 N.am  242  ASN242     -0.0877
     27  N         51.1750   32.3840  -44.3660 N.3   244  VAL244     -0.1245
     28  CA        52.3860   33.1980  -44.3140 C.3   244  VAL244      0.1561
     29  C         52.5660   33.6360  -45.7880 C.2   244  VAL244      0.2260
     30  O         52.7720   32.7910  -46.6560 O.2   244  VAL244     -0.2867
     31  CB        53.6080   32.3840  -43.7920 C.3   244  VAL244      0.0252
     32  CG1       54.8630   33.2390  -43.7360 C.3   244  VAL244      0.0019
     33  CG2       53.3190   31.7860  -42.3980 C.3   244  VAL244      0.0019
     34  N         55.3900   38.6580  -46.2400 N.3   248  ASP248     -0.1225
     35  CA        55.9640   38.3630  -44.9010 C.3   248  ASP248      0.1805
     36  C         57.4710   38.1250  -44.9380 C.2   248  ASP248      0.2598
     37  O         58.2040   38.5750  -44.0590 O.2   248  ASP248     -0.2718
     38  CB        55.2420   37.1770  -44.2440 C.3   248  ASP248      0.1424
     39  CG        53.8390   37.5360  -43.8030 C.2   248  ASP248      0.3668
     40  OD1       53.6670   38.6880  -43.3590 O.co2 248  ASP248     -0.2456
     41  OD2       52.8990   36.7090  -43.9080 O.co2 248  ASP248     -0.2456
     42  N         57.9370   37.4480  -45.9840 N.am  249  CYS249     -0.1970
     43  CA        59.3370   37.1150  -46.1170 C.3   249  CYS249      0.1712
     44  C         60.0750   38.0360  -47.0820 C.2   249  CYS249      0.2296
     45  O         61.2010   38.4470  -46.7950 O.2   249  CYS249     -0.2864
     46  CB        59.5100   35.6410  -46.5390 C.3   249  CYS249      0.0983
     47  SG        58.8030   34.3590  -45.3680 S.3   249  CYS249     -0.0798
     48  N         65.1530   36.9980  -48.3520 N.3   270  PRO270     -0.2102
     49  CA        64.7320   37.2830  -46.9610 C.3   270  PRO270      0.1504
     50  C         65.8340   37.1620  -45.8790 C.2   270  PRO270      0.2575
     51  O         65.7370   37.8160  -44.8500 O.2   270  PRO270     -0.2718
     52  CB        63.5850   36.2930  -46.7170 C.3   270  PRO270      0.0282
     53  CG        63.0430   36.0110  -48.0910 C.3   270  PRO270      0.0208
     54  CD        64.2810   35.9910  -48.9780 C.3   270  PRO270      0.0893
     55  N         66.8730   36.3700  -46.1120 N.am  271  PHE271     -0.1977
     56  CA        67.9730   36.2830  -45.1310 C.3   271  PHE271      0.1639
     57  C         68.8200   37.5580  -44.9820 C.2   271  PHE271      0.2290
     58  O         69.5490   37.7010  -44.0000 O.2   271  PHE271     -0.2864
     59  CB        68.8720   35.0620  -45.3970 C.3   271  PHE271      0.0560
     60  CG        68.2650   33.7600  -44.9590 C.ar  271  PHE271     -0.0200
     61  CD1       67.8700   32.8110  -45.9020 C.ar  271  PHE271     -0.0042
     62  CD2       68.0830   33.4820  -43.5970 C.ar  271  PHE271     -0.0042
     63  CE1       67.3120   31.5810  -45.5110 C.ar  271  PHE271     -0.0003
     64  CE2       67.5170   32.2850  -43.1820 C.ar  271  PHE271     -0.0003
     65  CZ        67.1330   31.3200  -44.1440 C.ar  271  PHE271     -0.0000
     66  N         62.3050   39.5720  -41.0670 N.3   277  THR277     -0.1203
     67  CA        61.6100   38.5060  -41.7570 C.3   277  THR277      0.1994
     68  C         61.3220   37.2940  -40.8370 C.2   277  THR277      0.2618
     69  O         60.3410   37.3110  -40.0940 O.2   277  THR277     -0.2717
     70  CB        62.3140   38.1390  -43.0990 C.3   277  THR277      0.1784
     71  OG1       63.6390   37.6730  -42.8440 O.3   277  THR277     -0.2211
     72  CG2       62.3770   39.3760  -44.0480 C.3   277  THR277      0.0376
     73  N         62.1690   36.2540  -40.8930 N.am  278  CYS278     -0.1969
     74  CA        61.9500   35.0050  -40.1400 C.3   278  CYS278      0.1712
     75  C         61.7650   35.2820  -38.6520 C.2   278  CYS278      0.2296
     76  O         60.8010   34.8000  -38.0500 O.2   278  CYS278     -0.2864
     77  CB        63.1090   34.0160  -40.3350 C.3   278  CYS278      0.0983
     78  SG        63.7980   33.9820  -41.9910 S.3   278  CYS278     -0.0798
     79  N         60.5130   37.5380  -36.9200 N.3   280  ASN280     -0.1225
     80  CA        59.1780   37.9560  -36.4430 C.3   280  ASN280      0.1785
     81  C         58.2950   36.8200  -35.9450 C.2   280  ASN280      0.2597
     82  O         57.3370   37.0410  -35.1810 O.2   280  ASN280     -0.2718
     83  CB        58.4210   38.7160  -37.5370 C.3   280  ASN280      0.1169
     84  CG        59.0150   40.0630  -37.7990 C.2   280  ASN280      0.2627
     85  OD1       59.8360   40.5500  -37.0140 O.2   280  ASN280     -0.2716
     86  ND2       58.6180   40.6850  -38.9040 N.am  280  ASN280     -0.0877
     87  N         58.6040   35.6060  -36.4000 N.am  281  CYS281     -0.1956
     88  CA        57.7680   34.4640  -36.1020 C.3   281  CYS281      0.1843
     89  C         58.5420   33.3160  -35.4280 C.2   281  CYS281      0.2625
     90  O         57.9250   32.4300  -34.8450 O.2   281  CYS281     -0.2714
     91  CB        57.1130   33.9430  -37.3790 C.3   281  CYS281      0.0997
     92  SG        55.9170   34.9810  -38.2930 S.3   281  CYS281     -0.0797
     93  N         59.8690   33.3550  -35.4970 N.am  282  HIS282     -0.1973
     94  CA        60.7390   32.2430  -35.1010 C.3   282  HIS282      0.1656
     95  C         61.7670   32.6610  -34.0560 C.2   282  HIS282      0.2291
     96  O         62.3070   33.7700  -34.1170 O.2   282  HIS282     -0.2864
     97  CB        61.5060   31.7070  -36.3320 C.3   282  HIS282      0.0771
     98  CG        60.6620   30.9050  -37.2720 C.ar  282  HIS282      0.0820
     99  ND1       60.3650   29.5780  -37.0560 N.ar  282  HIS282     -0.2267
    100  CD2       60.0420   31.2480  -38.4250 C.ar  282  HIS282      0.1154
    101  CE1       59.5890   29.1380  -38.0290 C.ar  282  HIS282      0.1986
    102  NE2       59.3850   30.1310  -38.8780 N.ar  282  HIS282     -0.2212
    103  N         68.6070   28.6800  -38.9170 N.3   289  LEU289     -0.1245
    104  CA        67.6260   28.6120  -39.9930 C.3   289  LEU289      0.1561
    105  C         68.2810   28.4830  -41.3950 C.2   289  LEU289      0.2260
    106  O         67.7850   27.7250  -42.2570 O.2   289  LEU289     -0.2867
    107  CB        66.6380   29.7830  -39.8860 C.3   289  LEU289      0.0270
    108  CG        65.2320   29.4450  -39.3320 C.3   289  LEU289      0.0019
    109  CD1       65.1380   28.1830  -38.4600 C.3   289  LEU289      0.0001
    110  CD2       64.5820   30.6110  -38.6310 C.3   289  LEU289      0.0001
    111  N         69.3310   24.8510  -42.0370 N.3   292  VAL292     -0.1231
    112  CA        68.1880   23.9770  -42.3820 C.3   292  VAL292      0.1692
    113  C         67.8170   24.1570  -43.8680 C.2   292  VAL292      0.2591
    114  O         67.6320   23.1860  -44.5890 O.2   292  VAL292     -0.2718
    115  CB        66.9480   24.2150  -41.4610 C.3   292  VAL292      0.0266
    116  CG1       65.6480   23.5110  -42.0010 C.3   292  VAL292      0.0020
    117  CG2       67.2490   23.7520  -40.0090 C.3   292  VAL292      0.0020
    118  N         67.7420   25.4060  -44.3250 N.am  293  VAL293     -0.1980
    119  CA        67.3420   25.6610  -45.7080 C.3   293  VAL293      0.1595
    120  C         68.3840   25.0690  -46.6710 C.2   293  VAL293      0.2287
    121  O         68.0210   24.4360  -47.6600 O.2   293  VAL293     -0.2864
    122  CB        67.0630   27.1730  -45.9530 C.3   293  VAL293      0.0276
    123  CG1       66.7790   27.4720  -47.4440 C.3   293  VAL293      0.0022
    124  CG2       65.8710   27.6280  -45.0980 C.3   293  VAL293      0.0022
    125  N         68.0600   21.4230  -47.1140 N.3   296  ARG296     -0.1245
    126  CA        66.9660   21.0510  -48.0140 C.3   296  ARG296      0.1563
    127  C         67.3510   21.3040  -49.4570 C.2   296  ARG296      0.2260
    128  O         66.9610   20.5390  -50.3590 O.2   296  ARG296     -0.2867
    129  CB        65.6360   21.7460  -47.6560 C.3   296  ARG296      0.0307
    130  CG        64.7960   21.0020  -46.5990 C.3   296  ARG296      0.0489
    131  CD        65.3700   21.1150  -45.1950 C.3   296  ARG296      0.2205
    132  NE        64.4750   20.4940  -44.2050 N.pl3 296  ARG296     -0.0865
    133  CZ        63.3260   21.0340  -43.7830 C.cat 296  ARG296      0.5346
    134  NH1       62.5790   20.3990  -42.8730 N.pl3 296  ARG296      0.1354
    135  NH2       62.9250   22.2100  -44.2610 N.pl3 296  ARG296      0.1354
    136  N         62.8280   25.8650  -50.0070 N.3   356  MET356     -0.1245
    137  CA        62.3310   26.7230  -48.9250 C.3   356  MET356      0.1570
    138  C         60.7960   26.6980  -48.8540 C.2   356  MET356      0.2261
    139  O         60.2370   26.4420  -47.7750 O.2   356  MET356     -0.2867
    140  CB        62.8790   28.1600  -49.0470 C.3   356  MET356      0.0387
    141  CG        62.2380   29.2010  -48.1020 C.3   356  MET356      0.0595
    142  SD        62.6960   28.9670  -46.3510 S.3   356  MET356     -0.1393
    143  CE        61.1220   29.3950  -45.5550 C.3   356  MET356      0.0692
    144  N         59.6580   22.0630  -49.5190 N.3   359  PRO359     -0.2116
    145  CA        60.7080   21.0440  -49.7610 C.3   359  PRO359      0.1372
    146  C         60.1110   19.6310  -49.9100 C.2   359  PRO359      0.2244
    147  O         60.5030   18.8600  -50.8030 O.2   359  PRO359     -0.2868
    148  CB        61.6350   21.1520  -48.5100 C.3   359  PRO359      0.0268
    149  CG        60.7800   21.8260  -47.4470 C.3   359  PRO359      0.0207
    150  CD        59.8910   22.8000  -48.2610 C.3   359  PRO359      0.0892
@<TRIPOS>BOND
     1   147   146    2
     2   128   127    2
     3   136   137    1
     4   146   145    1
     5   145   144    1
     6   145   148    1
     7   144   150    1
     8   127   126    1
     9   140   137    1
    10   140   141    1
    11    54    48    1
    12    54    53    1
    13   137   138    1
    14   138   139    2
    15   148   149    1
    16    48    49    1
    17   150   149    1
    18   141   142    1
    19    53    52    1
    20   126   129    1
    21   126   125    1
    22   121   120    2
    23   129   130    1
    24   123   122    1
    25    44    45    2
    26    44    43    1
    27    49    52    1
    28    49    50    1
    29   120   119    1
    30    30    29    2
    31   130   131    1
    32    46    43    1
    33    46    47    1
    34   142   143    1
    35    34    35    1
    36    43    42    1
    37    55    50   am
    38    55    56    1
    39    42    36   am
    40     1     2    1
    41   122   119    1
    42   122   124    1
    43    61    63   ar
    44    61    60   ar
    45    50    51    2
    46    29    28    1
    47   119   118    1
    48    63    65   ar
    49    11    12    2
    50    11    10    1
    51    59    56    1
    52    59    60    1
    53    13    10    1
    54    13    14    1
    55   131   132    1
    56    56    57    1
    57    57    58    2
    58    60    62   ar
    59    36    35    1
    60    36    37    2
    61    35    38    1
    62     9    10    1
    63     9     3   am
    64     2     3    1
    65     2     5    1
    66   114   113    2
    67    27    28    1
    68     3     4    2
    69    15    14   ar
    70    15    17   ar
    71   118   113   am
    72    28    31    1
    73   135   133    1
    74    14    16   ar
    75    38    39    1
    76   132   133    2
    77    65    64   ar
    78    72    70    1
    79    41    39   ar
    80   113   112    1
    81    39    40   ar
    82    31    32    1
    83    31    33    1
    84   133   134    1
    85    19    20    1
    86    62    64   ar
    87     5     7    1
    88     5     6    1
    89    17    18   ar
    90    16    18   ar
    91    70    71    1
    92    70    67    1
    93    21    20    1
    94    21    22    2
    95     6     8    1
    96    20    23    1
    97   112   111    1
    98   112   115    1
    99   106   105    2
   100   116   115    1
   101    78    77    1
   102    67    66    1
   103    67    68    1
   104    23    24    1
   105   115   117    1
   106   105   104    1
   107    26    24   am
   108    73    68   am
   109    73    74    1
   110    68    69    2
   111    24    25    2
   112    77    74    1
   113    74    75    1
   114   104   107    1
   115   104   103    1
   116   107   108    1
   117   108   110    1
   118   108   109    1
   119    86    84   am
   120   102   100   ar
   121   102   101   ar
   122    75    76    2
   123   100    98   ar
   124    92    91    1
   125   101    99   ar
   126    84    83    1
   127    84    85    2
   128    83    80    1
   129    91    88    1
   130    98    99   ar
   131    98    97    1
   132    79    80    1
   133    80    81    1
   134    87    88    1
   135    87    81   am
   136    97    94    1
   137    88    89    1
   138    81    82    2
   139    93    89   am
   140    93    94    1
   141    89    90    2
   142    94    95    1
   143    96    95    2
