@<TRIPOS>MOLECULE
tmp/2rf7D02.pdb
 241 231 0 0 0
SMALL
GASTEIGER

@<TRIPOS>ATOM
      1  N         57.5910   54.9800  -64.0300 N.3     6  ASN6       -0.1240
      2  CA        57.7510   54.8070  -62.5820 C.3     6  ASN6        0.1653
      3  C         58.1610   56.0660  -61.8350 C.2     6  ASN6        0.2266
      4  O         57.5920   56.3640  -60.7730 O.2     6  ASN6       -0.2867
      5  CB        58.7270   53.6570  -62.2710 C.3     6  ASN6        0.1155
      6  CG        58.2660   52.3300  -62.8500 C.2     6  ASN6        0.2627
      7  OD1       57.1540   51.8610  -62.5760 O.2     6  ASN6       -0.2716
      8  ND2       59.1100   51.7270  -63.6750 N.am    6  ASN6       -0.0877
      9  N         56.2060   58.5750  -59.6380 N.3     9  PHE9       -0.1241
     10  CA        55.7560   58.3940  -58.2560 C.3     9  PHE9        0.1605
     11  C         56.8570   58.6410  -57.2270 C.2     9  PHE9        0.2264
     12  O         56.6150   58.5140  -56.0170 O.2     9  PHE9       -0.2867
     13  CB        55.1610   56.9980  -58.0580 C.3     9  PHE9        0.0534
     14  CG        54.0370   56.6620  -58.9900 C.ar    9  PHE9       -0.0203
     15  CD1       52.7400   57.0880  -58.7270 C.ar    9  PHE9       -0.0042
     16  CD2       54.2620   55.8780  -60.1200 C.ar    9  PHE9       -0.0042
     17  CE1       51.6830   56.7650  -59.5950 C.ar    9  PHE9       -0.0003
     18  CE2       53.2060   55.5370  -60.9790 C.ar    9  PHE9       -0.0003
     19  CZ        51.9160   55.9860  -60.7180 C.ar    9  PHE9       -0.0000
     20  N         56.3000   59.1680  -53.0670 N.3    13  HIS13      -0.1241
     21  CA        56.5810   57.9420  -52.2740 C.3    13  HIS13       0.1621
     22  C         58.0670   57.5930  -52.2100 C.2    13  HIS13       0.2264
     23  O         58.4740   56.5180  -52.6660 O.2    13  HIS13      -0.2867
     24  CB        55.8550   56.7480  -52.8700 C.3    13  HIS13       0.0745
     25  CG        54.3840   56.9380  -53.0460 C.ar   13  HIS13       0.0817
     26  ND1       53.8090   57.1890  -54.2730 N.ar   13  HIS13      -0.2268
     27  CD2       53.3610   56.8670  -52.1620 C.ar   13  HIS13       0.1154
     28  CE1       52.4970   57.2710  -54.1360 C.ar   13  HIS13       0.1986
     29  NE2       52.1990   57.0780  -52.8640 N.ar   13  HIS13      -0.2212
     30  N         59.1550   53.8370  -50.7230 N.3    16  GLN16      -0.1231
     31  CA        58.8320   52.7490  -51.6390 C.3    16  GLN16       0.1698
     32  C         59.6240   52.8260  -52.9430 C.2    16  GLN16       0.2592
     33  O         60.1130   51.7950  -53.4350 O.2    16  GLN16      -0.2718
     34  CB        57.3330   52.7340  -51.9610 C.3    16  GLN16       0.0381
     35  CG        56.4220   52.4230  -50.7790 C.3    16  GLN16       0.0905
     36  CD        56.0800   53.6530  -49.9330 C.2    16  GLN16       0.2608
     37  OE1       55.3150   53.5590  -48.9680 O.2    16  GLN16      -0.2717
     38  NE2       56.6570   54.8070  -50.2830 N.am   16  GLN16      -0.0878
     39  N         59.7460   54.0330  -53.5030 N.am   17  TYR17      -0.1976
     40  CA        60.4390   54.1940  -54.7740 C.3    17  TYR17       0.1639
     41  C         61.9320   53.9220  -54.6140 C.2    17  TYR17       0.2290
     42  O         62.5110   53.2230  -55.4490 O.2    17  TYR17      -0.2864
     43  CB        60.1790   55.5780  -55.4180 C.3    17  TYR17       0.0560
     44  CG        60.9250   55.8070  -56.7300 C.ar   17  TYR17      -0.0198
     45  CD1       60.3600   55.4450  -57.9580 C.ar   17  TYR17      -0.0009
     46  CD2       62.1960   56.3790  -56.7340 C.ar   17  TYR17      -0.0009
     47  CE1       61.0500   55.6510  -59.1670 C.ar   17  TYR17       0.0417
     48  CE2       62.9010   56.5870  -57.9340 C.ar   17  TYR17       0.0417
     49  CZ        62.3290   56.2220  -59.1410 C.ar   17  TYR17       0.1957
     50  OH        63.0450   56.4410  -60.3150 O.3    17  TYR17      -0.2866
     51  N         62.2160   50.2030  -54.1570 N.3    20  TRP20      -0.1241
     52  CA        61.8680   49.5480  -55.4250 C.3    20  TRP20       0.1605
     53  C         63.0240   49.6300  -56.4120 C.2    20  TRP20       0.2264
     54  O         63.3630   48.6430  -57.0740 O.2    20  TRP20      -0.2867
     55  CB        60.5850   50.1290  -56.0320 C.3    20  TRP20       0.0550
     56  CG        60.3600   49.7800  -57.5170 C.ar   20  TRP20       0.0003
     57  CD1       59.6960   48.6820  -58.0280 C.ar   20  TRP20       0.0946
     58  CD2       60.7890   50.5470  -58.6560 C.ar   20  TRP20       0.0152
     59  NE1       59.6850   48.7300  -59.4090 N.ar   20  TRP20      -0.2442
     60  CE2       60.3500   49.8580  -59.8180 C.ar   20  TRP20       0.0810
     61  CE3       61.4960   51.7550  -58.8080 C.ar   20  TRP20       0.0012
     62  CZ2       60.5990   50.3450  -61.1210 C.ar   20  TRP20       0.0191
     63  CZ3       61.7470   52.2280  -60.1040 C.ar   20  TRP20       0.0001
     64  CH2       61.3040   51.5100  -61.2390 C.ar   20  TRP20       0.0015
     65  N         64.1480   42.4740  -60.0130 N.3    58  HIS58      -0.1241
     66  CA        63.0690   43.0410  -60.8630 C.3    58  HIS58       0.1621
     67  C         63.5170   44.1610  -61.8260 C.2    58  HIS58       0.2264
     68  O         62.9250   44.3240  -62.9020 O.2    58  HIS58      -0.2867
     69  CB        61.8800   43.5530  -60.0210 C.3    58  HIS58       0.0745
     70  CG        60.9850   42.4650  -59.4880 C.ar   58  HIS58       0.0817
     71  ND1       60.1010   42.6630  -58.4430 N.ar   58  HIS58      -0.2268
     72  CD2       60.8560   41.1650  -59.8410 C.ar   58  HIS58       0.1154
     73  CE1       59.4550   41.5420  -58.1950 C.ar   58  HIS58       0.1986
     74  NE2       59.9050   40.6110  -59.0170 N.ar   58  HIS58      -0.2212
     75  N         59.5770   46.7650  -64.7150 N.3   122  LEU122     -0.1231
     76  CA        58.5390   46.1670  -63.8420 C.3   122  LEU122      0.1696
     77  C         58.3800   47.0430  -62.5750 C.2   122  LEU122      0.2632
     78  O         59.3590   47.3690  -61.9040 O.2   122  LEU122     -0.2714
     79  CB        58.9550   44.7280  -63.4400 C.3   122  LEU122      0.0284
     80  CG        57.8970   43.8560  -62.7350 C.3   122  LEU122      0.0019
     81  CD1       58.3590   42.4000  -62.7690 C.3   122  LEU122      0.0001
     82  CD2       57.6030   44.2890  -61.2950 C.3   122  LEU122      0.0001
     83  N         57.1570   47.4530  -62.2850 N.am  123  GLY123     -0.1718
     84  CA        56.9650   48.5260  -61.3320 C.2   123  GLY123      0.1480
     85  C         55.5350   48.8080  -60.9470 C.2   123  GLY123      0.2820
     86  O         54.6610   47.9260  -61.0300 O.2   123  GLY123     -0.2669
     87  N         55.3090   50.0610  -60.5330 N.am  124  CYS124     -0.1933
     88  CA        54.1400   50.4480  -59.7230 C.3   124  CYS124      0.1715
     89  C         52.8200   49.9120  -60.2380 C.2   124  CYS124      0.2296
     90  O         52.0800   49.2670  -59.4850 O.2   124  CYS124     -0.2864
     91  CB        54.0900   51.9670  -59.5350 C.3   124  CYS124      0.0983
     92  SG        55.6600   52.6530  -59.0550 S.3   124  CYS124     -0.0798
     93  N         51.4100   46.0930  -59.8350 N.3   127  CYS127     -0.1221
     94  CA        50.8530   45.6370  -58.5530 C.3   127  CYS127      0.1808
     95  C         49.7630   46.5420  -57.9710 C.2   127  CYS127      0.2601
     96  O         48.8580   46.0480  -57.2890 O.2   127  CYS127     -0.2717
     97  CB        51.9770   45.5100  -57.5250 C.3   127  CYS127      0.0970
     98  SG        53.3120   44.3140  -57.9240 S.3   127  CYS127     -0.0800
     99  N         49.8550   47.8490  -58.2400 N.am  128  HIS128     -0.1975
    100  CA        49.0240   48.8830  -57.5920 C.3   128  HIS128      0.1656
    101  C         48.0400   49.5530  -58.5440 C.2   128  HIS128      0.2291
    102  O         48.3690   49.8260  -59.7130 O.2   128  HIS128     -0.2864
    103  CB        49.9080   49.9890  -56.9920 C.3   128  HIS128      0.0771
    104  CG        50.7750   49.5410  -55.8540 C.ar  128  HIS128      0.0820
    105  ND1       50.2590   49.0820  -54.6620 N.ar  128  HIS128     -0.2267
    106  CD2       52.1240   49.5160  -55.7120 C.ar  128  HIS128      0.1154
    107  CE1       51.2510   48.7770  -53.8420 C.ar  128  HIS128      0.1986
    108  NE2       52.3950   49.0130  -54.4570 N.ar  128  HIS128     -0.2212
    109  N         45.8440   55.9430  -53.1690 N.3   135  PHE135     -0.1241
    110  CA        47.2410   55.6010  -53.4730 C.3   135  PHE135      0.1605
    111  C         48.2120   56.7610  -53.2560 C.2   135  PHE135      0.2264
    112  O         49.2990   56.5740  -52.6820 O.2   135  PHE135     -0.2867
    113  CB        47.4040   55.0040  -54.8880 C.3   135  PHE135      0.0534
    114  CG        48.8260   54.5720  -55.2020 C.ar  135  PHE135     -0.0203
    115  CD1       49.6680   55.3850  -55.9620 C.ar  135  PHE135     -0.0042
    116  CD2       49.3300   53.3730  -54.7040 C.ar  135  PHE135     -0.0042
    117  CE1       50.9830   55.0040  -56.2340 C.ar  135  PHE135     -0.0003
    118  CE2       50.6420   52.9800  -54.9710 C.ar  135  PHE135     -0.0003
    119  CZ        51.4710   53.7950  -55.7340 C.ar  135  PHE135     -0.0000
    120  N         48.7340   57.1330  -49.7640 N.3   138  GLY138     -0.1225
    121  CA        49.6170   56.1180  -49.1820 C.3   138  GLY138      0.1811
    122  C         48.9640   54.7960  -48.8080 C.2   138  GLY138      0.2280
    123  O         49.5340   54.0280  -48.0270 O.2   138  GLY138     -0.2866
    124  N         47.9370   51.0760  -50.1720 N.3   140  PRO140     -0.2116
    125  CA        48.4590   50.2200  -51.2500 C.3   140  PRO140      0.1372
    126  C         47.5400   50.1320  -52.4660 C.2   140  PRO140      0.2244
    127  O         48.0250   50.2270  -53.6040 O.2   140  PRO140     -0.2868
    128  CB        48.5980   48.8390  -50.5800 C.3   140  PRO140      0.0268
    129  CG        47.7350   48.9100  -49.3460 C.3   140  PRO140      0.0207
    130  CD        47.8310   50.3380  -48.8970 C.3   140  PRO140      0.0892
    131  N         46.0290   47.4450  -53.7350 N.3   142  LEU142     -0.1245
    132  CA        46.5470   46.3310  -54.5210 C.3   142  LEU142      0.1561
    133  C         45.5460   45.9470  -55.5590 C.2   142  LEU142      0.2260
    134  O         44.3380   45.9750  -55.3140 O.2   142  LEU142     -0.2867
    135  CB        46.8550   45.1010  -53.6540 C.3   142  LEU142      0.0270
    136  CG        47.9770   45.1800  -52.6320 C.3   142  LEU142      0.0019
    137  CD1       47.9870   43.8620  -51.8620 C.3   142  LEU142      0.0001
    138  CD2       49.3300   45.4930  -53.2760 C.3   142  LEU142      0.0001
    139  N         42.7160   40.6780  -47.3180 N.3   165  ARG165     -0.1245
    140  CA        43.9940   41.3680  -47.5300 C.3   165  ARG165      0.1563
    141  C         45.2540   40.4780  -47.6660 C.2   165  ARG165      0.2260
    142  O         46.1920   40.8080  -48.4200 O.2   165  ARG165     -0.2867
    143  CB        44.2240   42.3780  -46.4060 C.3   165  ARG165      0.0307
    144  CG        45.4420   43.2610  -46.5960 C.3   165  ARG165      0.0489
    145  CD        46.0760   43.6270  -45.2740 C.3   165  ARG165      0.2205
    146  NE        47.2920   44.4260  -45.4310 N.pl3 165  ARG165     -0.0865
    147  CZ        47.9950   44.9240  -44.4170 C.cat 165  ARG165      0.5346
    148  NH1       47.6040   44.7120  -43.1610 N.pl3 165  ARG165      0.1354
    149  NH2       49.0910   45.6320  -44.6430 N.pl3 165  ARG165      0.1354
    150  N         48.0840   39.8060  -51.0720 N.3   169  GLN169     -0.1245
    151  CA        49.5010   40.1120  -51.0570 C.3   169  GLN169      0.1566
    152  C         50.2830   39.1210  -51.9160 C.2   169  GLN169      0.2260
    153  O         51.2730   39.5000  -52.5810 O.2   169  GLN169     -0.2867
    154  CB        50.0250   40.0940  -49.6300 C.3   169  GLN169      0.0367
    155  CG        49.3790   41.1200  -48.7190 C.3   169  GLN169      0.0905
    156  CD        49.9240   41.0590  -47.3100 C.2   169  GLN169      0.2608
    157  OE1       50.2680   39.9760  -46.8050 O.2   169  GLN169     -0.2717
    158  NE2       50.0150   42.2210  -46.6570 N.am  169  GLN169     -0.0878
    159  N         49.2670   39.0720  -55.9800 N.3   172  VAL172     -0.1231
    160  CA        50.0290   40.0920  -56.6930 C.3   172  VAL172      0.1692
    161  C         51.3820   39.5300  -57.2550 C.2   172  VAL172      0.2592
    162  O         51.8550   39.9260  -58.3350 O.2   172  VAL172     -0.2718
    163  CB        50.1730   41.3140  -55.7510 C.3   172  VAL172      0.0266
    164  CG1       51.3640   42.1710  -56.0600 C.3   172  VAL172      0.0020
    165  CG2       48.8700   42.1330  -55.7590 C.3   172  VAL172      0.0020
    166  N         51.9740   38.5880  -56.5280 N.am  173  CYS173     -0.1970
    167  CA        53.1630   37.8890  -56.9900 C.3   173  CYS173      0.1712
    168  C         52.7290   36.7650  -57.9440 C.2   173  CYS173      0.2296
    169  O         53.3950   36.4830  -58.9390 O.2   173  CYS173     -0.2864
    170  CB        53.9370   37.3280  -55.7830 C.3   173  CYS173      0.0983
    171  SG        54.1970   38.5260  -54.4290 S.3   173  CYS173     -0.0798
    172  N         55.0330   38.3210  -49.0860 N.3   247  ILE247     -0.1245
    173  CA        55.3770   39.6180  -48.5130 C.3   247  ILE247      0.1561
    174  C         55.9860   39.5010  -47.1000 C.2   247  ILE247      0.2260
    175  O         57.0040   40.1510  -46.8170 O.2   247  ILE247     -0.2867
    176  CB        54.0800   40.5560  -48.5590 C.3   247  ILE247      0.0252
    177  CG1       53.9520   41.2110  -49.9370 C.3   247  ILE247      0.0019
    178  CG2       54.0570   41.6130  -47.4950 C.3   247  ILE247      0.0019
    179  CD1       53.5550   40.2440  -51.0450 C.3   247  ILE247      0.0001
    180  N         58.8940   41.0830  -48.8060 N.3   251  MET251     -0.1245
    181  CA        58.5830   42.5100  -48.6720 C.3   251  MET251      0.1570
    182  C         58.2030   42.8660  -47.2240 C.2   251  MET251      0.2261
    183  O         57.0130   43.0990  -46.9530 O.2   251  MET251     -0.2867
    184  CB        57.3870   42.8560  -49.5520 C.3   251  MET251      0.0387
    185  CG        57.6080   42.7760  -51.0510 C.3   251  MET251      0.0595
    186  SD        56.2710   43.6020  -51.9530 S.3   251  MET251     -0.1393
    187  CE        56.9060   45.2660  -51.9970 C.3   251  MET251      0.0692
    188  N         57.7340   44.8260  -43.5060 N.3   253  LYS253     -0.1245
    189  CA        57.4690   46.1770  -43.0000 C.3   253  LYS253      0.1561
    190  C         58.6880   46.6660  -42.2340 C.2   253  LYS253      0.2260
    191  O         59.1700   45.9900  -41.3260 O.2   253  LYS253     -0.2867
    192  CB        56.2190   46.1870  -42.1300 C.3   253  LYS253      0.0271
    193  CG        54.9560   45.7790  -42.8600 C.3   253  LYS253      0.0035
    194  CD        54.3170   46.9660  -43.6010 C.3   253  LYS253      0.0206
    195  CE        52.9250   46.6250  -44.1790 C.3   253  LYS253      0.1093
    196  NZ        52.9900   45.7820  -45.4320 N.3   253  LYS253     -0.1314
    197  N         56.5130   53.5690  -40.6350 N.3   261  LEU261     -0.1231
    198  CA        56.4050   52.2030  -41.1170 C.3   261  LEU261      0.1693
    199  C         56.0610   52.2080  -42.6010 C.2   261  LEU261      0.2592
    200  O         55.2230   53.0020  -43.0410 O.2   261  LEU261     -0.2718
    201  CB        55.3020   51.4720  -40.3500 C.3   261  LEU261      0.0284
    202  CG        55.4260   49.9630  -40.1110 C.3   261  LEU261      0.0019
    203  CD1       56.3750   49.6740  -38.9350 C.3   261  LEU261      0.0001
    204  CD2       54.0450   49.3320  -39.8690 C.3   261  LEU261      0.0001
    205  N         56.6960   51.3110  -43.3640 N.am  262  TYR262     -0.1962
    206  CA        56.4290   51.1660  -44.8090 C.3   262  TYR262      0.1771
    207  C         56.9670   49.8180  -45.2990 C.2   262  TYR262      0.2620
    208  O         57.9380   49.3030  -44.7360 O.2   262  TYR262     -0.2715
    209  CB        57.0750   52.3120  -45.6150 C.3   262  TYR262      0.0574
    210  CG        58.5740   52.1680  -45.8080 C.ar  262  TYR262     -0.0198
    211  CD1       59.1010   51.5240  -46.9450 C.ar  262  TYR262     -0.0009
    212  CD2       59.4700   52.6600  -44.8630 C.ar  262  TYR262     -0.0009
    213  CE1       60.4750   51.3820  -47.1280 C.ar  262  TYR262      0.0417
    214  CE2       60.8460   52.5310  -45.0400 C.ar  262  TYR262      0.0417
    215  CZ        61.3420   51.8900  -46.1770 C.ar  262  TYR262      0.1957
    216  OH        62.7100   51.7630  -46.3360 O.3   262  TYR262     -0.2866
    217  N         56.3340   49.2710  -46.3390 N.am  263  THR263     -0.1951
    218  CA        56.7680   48.0310  -47.0050 C.3   263  THR263      0.1897
    219  C         58.1010   48.2160  -47.7630 C.2   263  THR263      0.2313
    220  O         58.2430   49.1370  -48.5810 O.2   263  THR263     -0.2863
    221  CB        55.6830   47.5340  -47.9510 C.3   263  THR263      0.1794
    222  OG1       54.4270   47.5080  -47.2670 O.3   263  THR263     -0.2208
    223  CG2       55.9850   46.1280  -48.4580 C.3   263  THR263      0.0378
    224  N         60.4590   47.6880  -50.5360 N.3   265  HIS265     -0.1241
    225  CA        60.1690   47.3480  -51.9390 C.3   265  HIS265      0.1621
    226  C         61.3890   46.7230  -52.6470 C.2   265  HIS265      0.2264
    227  O         61.3120   46.3210  -53.8170 O.2   265  HIS265     -0.2867
    228  CB        59.5720   48.5450  -52.7100 C.3   265  HIS265      0.0745
    229  CG        58.0720   48.6310  -52.6440 C.ar  265  HIS265      0.0817
    230  ND1       57.3910   48.9360  -51.4810 N.ar  265  HIS265     -0.2268
    231  CD2       57.1220   48.4630  -53.5970 C.ar  265  HIS265      0.1154
    232  CE1       56.0920   48.9350  -51.7170 C.ar  265  HIS265      0.1986
    233  NE2       55.8980   48.6830  -53.0030 N.ar  265  HIS265     -0.2212
    234  N         62.6040   43.8260  -53.1100 N.3   267  ILE267     -0.1245
    235  CA        62.2950   42.3830  -53.1970 C.3   267  ILE267      0.1561
    236  C         63.5220   41.5100  -53.5220 C.2   267  ILE267      0.2260
    237  O         64.0540   41.5550  -54.6380 O.2   267  ILE267     -0.2867
    238  CB        61.1830   42.1340  -54.2200 C.3   267  ILE267      0.0252
    239  CG1       59.9050   42.8690  -53.7790 C.3   267  ILE267      0.0019
    240  CG2       60.9860   40.6200  -54.4370 C.3   267  ILE267      0.0019
    241  CD1       58.7550   42.8490  -54.7520 C.3   267  ILE267      0.0001
@<TRIPOS>BOND
     1    75    76    1
     2     1     2    1
     3    76    79    1
     4    76    77    1
     5     8     6   am
     6    79    80    1
     7    68    67    2
     8     6     7    2
     9     6     5    1
    10    81    80    1
    11    80    82    1
    12     2     5    1
    13     2     3    1
    14    77    83    1
    15    77    78    2
    16    83    84    2
    17     3     4    2
    18    67    66    1
    19    84    85    1
    20    64    62   ar
    21    64    63   ar
    22    62    60   ar
    23    86    85    2
    24    18    19   ar
    25    18    16   ar
    26    85    87   am
    27    66    69    1
    28    66    65    1
    29    19    17   ar
    30    87    88    1
    31    50    49    1
    32    89    88    1
    33    89    90    2
    34    16    14   ar
    35    63    61   ar
    36    69    70    1
    37    72    70   ar
    38    72    74   ar
    39    93    94    1
    40    60    59   ar
    41    60    58   ar
    42    88    91    1
    43   102   101    2
    44     9    10    1
    45    17    15   ar
    46    91    92    1
    47    70    71   ar
    48    59    57   ar
    49    47    49   ar
    50    47    45   ar
    51    49    48   ar
    52    74    73   ar
    53    14    15   ar
    54    14    13    1
    55   169   168    2
    56    61    58   ar
    57    58    56   ar
    58    94    95    1
    59    94    97    1
    60   101   100    1
    61    71    73   ar
    62   162   161    2
    63    10    13    1
    64    10    11    1
    65    99    95   am
    66    99   100    1
    67    57    56   ar
    68    95    96    2
    69    45    44   ar
    70   168   167    1
    71    48    46   ar
    72    98    97    1
    73   100   103    1
    74    56    55    1
    75   161   160    1
    76   161   166   am
    77    11    12    2
    78    54    53    2
    79   103   104    1
    80   167   166    1
    81   167   170    1
    82    46    44   ar
    83    44    43    1
    84   160   159    1
    85   160   163    1
    86    53    52    1
    87   117   115   ar
    88   117   119   ar
    89   164   163    1
    90    55    52    1
    91   115   114   ar
    92   104   106   ar
    93   104   105   ar
    94   170   171    1
    95   165   163    1
    96   119   118   ar
    97   106   108   ar
    98   133   134    2
    99   133   132    1
   100    42    41    2
   101    52    51    1
   102    43    40    1
   103   114   113    1
   104   114   116   ar
   105   118   116   ar
   106   113   110    1
   107    40    41    1
   108    40    39    1
   109   241   239    1
   110   105   107   ar
   111   237   236    2
   112   132   131    1
   113   132   135    1
   114   108   107   ar
   115   240   238    1
   116    26    28   ar
   117    26    25   ar
   118   238   239    1
   119   238   235    1
   120    28    29   ar
   121   227   226    2
   122   135   136    1
   123   127   126    2
   124   231   233   ar
   125   231   229   ar
   126   236   235    1
   127    39    32   am
   128   110   111    1
   129   110   109    1
   130    33    32    2
   131   138   136    1
   132   111   112    2
   133   235   234    1
   134    20    21    1
   135    25    24    1
   136    25    27   ar
   137   233   232   ar
   138    32    31    1
   139    24    21    1
   140    29    27   ar
   141   228   229    1
   142   228   225    1
   143    23    22    2
   144   226   225    1
   145   229   230   ar
   146   136   137    1
   147   153   152    2
   148   126   125    1
   149    21    22    1
   150   187   186    1
   151    34    31    1
   152    34    35    1
   153   186   185    1
   154   225   224    1
   155   152   151    1
   156   232   230   ar
   157    31    30    1
   158   125   128    1
   159   125   124    1
   160   150   151    1
   161   151   154    1
   162   185   184    1
   163   179   177    1
   164    35    36    1
   165   128   129    1
   166    38    36   am
   167   124   130    1
   168   177   176    1
   169    36    37    2
   170   120   121    1
   171   154   155    1
   172   184   181    1
   173   129   130    1
   174   121   122    1
   175   172   173    1
   176   122   123    2
   177   180   181    1
   178   155   156    1
   179   181   182    1
   180   220   219    2
   181   176   173    1
   182   176   178    1
   183   173   174    1
   184   223   221    1
   185   142   141    2
   186   221   222    1
   187   221   218    1
   188   219   218    1
   189   141   140    1
   190   140   139    1
   191   140   143    1
   192   156   157    2
   193   156   158   am
   194   182   183    2
   195   213   211   ar
   196   213   215   ar
   197   174   175    2
   198   218   217    1
   199   211   210   ar
   200   144   143    1
   201   144   145    1
   202   217   207   am
   203   216   215    1
   204   215   214   ar
   205   210   209    1
   206   210   212   ar
   207   209   206    1
   208   196   195    1
   209   146   145    1
   210   146   147    2
   211   207   206    1
   212   207   208    2
   213   214   212   ar
   214   206   205    1
   215   149   147    1
   216   147   148    1
   217   195   194    1
   218   194   193    1
   219   188   189    1
   220   205   199   am
   221   200   199    2
   222   189   190    1
   223   189   192    1
   224   193   192    1
   225   199   198    1
   226   190   191    2
   227   198   197    1
   228   198   201    1
   229   201   202    1
   230   202   204    1
   231   202   203    1
