@<TRIPOS>MOLECULE
tmp/2rf7D03.pdb
 212 204 0 0 0
SMALL
GASTEIGER

@<TRIPOS>ATOM
      1  N         70.7950   43.7730  -57.0010 N.3    26  GLN26      -0.1245
      2  CA        70.7210   42.3240  -57.1840 C.3    26  GLN26       0.1566
      3  C         71.0160   42.0070  -58.6650 C.2    26  GLN26       0.2260
      4  O         70.1190   41.6550  -59.4500 O.2    26  GLN26      -0.2867
      5  CB        69.3320   41.8200  -56.7600 C.3    26  GLN26       0.0367
      6  CG        68.9420   42.2720  -55.3340 C.3    26  GLN26       0.0905
      7  CD        67.4510   42.2160  -55.0510 C.2    26  GLN26       0.2608
      8  OE1       66.7430   41.3490  -55.5500 O.2    26  GLN26      -0.2717
      9  NE2       66.9700   43.1420  -54.2220 N.am   26  GLN26      -0.0878
     10  N         69.7450   31.9260  -63.8110 N.3    54  LYS54      -0.1231
     11  CA        68.9870   32.1320  -62.5610 C.3    54  LYS54       0.1681
     12  C         68.3460   33.5400  -62.4870 C.2    54  LYS54       0.2471
     13  O         68.8590   34.4840  -63.0930 O.2    54  LYS54      -0.2730
     14  CB        69.8930   31.8810  -61.3620 C.3    54  LYS54       0.0284
     15  CG        70.2540   30.4030  -61.1930 C.3    54  LYS54       0.0035
     16  CD        71.1050   30.1990  -59.9680 C.3    54  LYS54       0.0206
     17  CE        71.6090   28.7690  -59.8810 C.3    54  LYS54       0.1093
     18  NZ        70.4810   27.8120  -59.9240 N.3    54  LYS54      -0.1314
     19  N         67.2220   33.6940  -61.7410 N.am   55  PRO55      -0.2492
     20  CA        66.6550   35.0450  -61.7070 C.3    55  PRO55       0.1619
     21  C         67.5390   36.0870  -61.0110 C.2    55  PRO55       0.2605
     22  O         68.4070   35.7460  -60.2150 O.2    55  PRO55      -0.2715
     23  CB        65.2920   34.8740  -60.9960 C.3    55  PRO55       0.0570
     24  CG        65.2870   33.4770  -60.4220 C.2    55  PRO55      -0.0077
     25  CD        66.4550   32.7140  -60.9470 C.2    55  PRO55       0.0634
     26  N         67.3640   37.3570  -61.3660 N.am   56  ARG56      -0.1964
     27  CA        67.9840   38.4360  -60.6050 C.3    56  ARG56       0.1729
     28  C         66.9290   39.5270  -60.3410 C.2    56  ARG56       0.2617
     29  O         65.7350   39.2630  -60.4740 O.2    56  ARG56      -0.2715
     30  CB        69.2540   38.9420  -61.2860 C.3    56  ARG56       0.0348
     31  CG        69.0490   39.4830  -62.7090 C.3    56  ARG56       0.0492
     32  CD        70.3380   40.1350  -63.1550 C.3    56  ARG56       0.2205
     33  NE        70.2820   40.5370  -64.5560 N.pl3  56  ARG56      -0.0865
     34  CZ        71.2260   41.2550  -65.1540 C.cat  56  ARG56       0.5346
     35  NH1       72.2860   41.6500  -64.4720 N.pl3  56  ARG56       0.1354
     36  NH2       71.0940   41.5810  -66.4250 N.pl3  56  ARG56       0.1354
     37  N         67.3520   40.7240  -59.9410 N.am   57  GLY57      -0.1940
     38  CA        66.3910   41.7180  -59.4460 C.3    57  GLY57       0.2014
     39  C         65.3630   42.1490  -60.4800 C.2    57  GLY57       0.2638
     40  O         65.6720   42.1930  -61.6830 O.2    57  GLY57      -0.2714
     41  N         64.1480   42.4740  -60.0130 N.am   58  HIS58      -0.1973
     42  CA        63.0690   43.0410  -60.8630 C.3    58  HIS58       0.1656
     43  C         63.5170   44.1610  -61.8260 C.2    58  HIS58       0.2291
     44  O         62.9250   44.3240  -62.9020 O.2    58  HIS58      -0.2864
     45  CB        61.8800   43.5530  -60.0210 C.3    58  HIS58       0.0771
     46  CG        60.9850   42.4650  -59.4880 C.ar   58  HIS58       0.0820
     47  ND1       60.1010   42.6630  -58.4430 N.ar   58  HIS58      -0.2267
     48  CD2       60.8560   41.1650  -59.8410 C.ar   58  HIS58       0.1154
     49  CE1       59.4550   41.5420  -58.1950 C.ar   58  HIS58       0.1986
     50  NE2       59.9050   40.6110  -59.0170 N.ar   58  HIS58      -0.2212
     51  N         65.9170   44.3540  -63.6610 N.3    60  PHE60      -0.1227
     52  CA        66.6710   43.8030  -64.7830 C.3    60  PHE60       0.1736
     53  C         65.7980   42.9690  -65.6900 C.2    60  PHE60       0.2595
     54  O         66.2980   42.4300  -66.6500 O.2    60  PHE60      -0.2718
     55  CB        67.8420   42.9470  -64.3010 C.3    60  PHE60       0.0547
     56  CG        68.9590   43.7250  -63.6730 C.ar   60  PHE60      -0.0202
     57  CD1       69.8590   44.4470  -64.4570 C.ar   60  PHE60      -0.0042
     58  CD2       69.1380   43.7120  -62.2910 C.ar   60  PHE60      -0.0042
     59  CE1       70.9120   45.1630  -63.8660 C.ar   60  PHE60      -0.0003
     60  CE2       70.1760   44.4300  -61.6900 C.ar   60  PHE60      -0.0003
     61  CZ        71.0730   45.1570  -62.4730 C.ar   60  PHE60      -0.0000
     62  N         64.5060   42.8710  -65.3830 N.am   61  ALA61      -0.1980
     63  CA        63.5420   42.0470  -66.1410 C.3    61  ALA61       0.1597
     64  C         63.4810   42.3890  -67.6250 C.2    61  ALA61       0.2287
     65  O         63.5700   41.5000  -68.4790 O.2    61  ALA61      -0.2864
     66  CB        62.1440   42.1460  -65.5230 C.3    61  ALA61       0.0319
     67  N         66.8440   41.6730  -69.3660 N.3    64  ASP64      -0.1239
     68  CA        67.0790   40.2410  -69.4840 C.3    64  ASP64       0.1674
     69  C         66.2200   39.5730  -70.5560 C.2    64  ASP64       0.2266
     70  O         66.6960   38.6810  -71.2430 O.2    64  ASP64      -0.2867
     71  CB        66.9710   39.5410  -68.1150 C.3    64  ASP64       0.1410
     72  CG        68.1620   39.8410  -67.2140 C.2    64  ASP64       0.3668
     73  OD1       69.2170   40.3030  -67.7240 O.co2  64  ASP64      -0.2456
     74  OD2       68.0590   39.6220  -65.9880 O.co2  64  ASP64      -0.2456
     75  N         55.2690   39.5150  -68.3630 N.3    89  CYS89      -0.1221
     76  CA        55.6320   39.4960  -66.9510 C.3    89  CYS89       0.1808
     77  C         56.9040   40.2990  -66.7130 C.2    89  CYS89       0.2601
     78  O         57.6950   39.9980  -65.8110 O.2    89  CYS89      -0.2717
     79  CB        55.7970   38.0320  -66.5180 C.3    89  CYS89       0.0970
     80  SG        54.3230   37.0200  -66.7010 S.3    89  CYS89      -0.0800
     81  N         57.1310   41.3200  -67.5420 N.am   90  LYS90      -0.1979
     82  CA        58.3800   42.0660  -67.4620 C.3    90  LYS90       0.1596
     83  C         58.2340   43.5740  -67.1690 C.2    90  LYS90       0.2287
     84  O         59.1750   44.2110  -66.6990 O.2    90  LYS90      -0.2864
     85  CB        59.2230   41.8370  -68.7350 C.3    90  LYS90       0.0298
     86  CG        59.4480   40.3540  -69.1350 C.3    90  LYS90       0.0038
     87  CD        60.4080   39.6710  -68.1530 C.3    90  LYS90       0.0206
     88  CE        60.7180   38.2570  -68.5340 C.3    90  LYS90       0.1093
     89  NZ        59.8020   37.2070  -67.9520 N.3    90  LYS90      -0.1314
     90  N         59.5770   46.7650  -64.7150 N.3   122  LEU122     -0.1245
     91  CA        58.5390   46.1670  -63.8420 C.3   122  LEU122      0.1561
     92  C         58.3800   47.0430  -62.5750 C.2   122  LEU122      0.2260
     93  O         59.3590   47.3690  -61.9040 O.2   122  LEU122     -0.2867
     94  CB        58.9550   44.7280  -63.4400 C.3   122  LEU122      0.0270
     95  CG        57.8970   43.8560  -62.7350 C.3   122  LEU122      0.0019
     96  CD1       58.3590   42.4000  -62.7690 C.3   122  LEU122      0.0001
     97  CD2       57.6030   44.2890  -61.2950 C.3   122  LEU122      0.0001
     98  N         52.1170   47.4580  -62.1650 N.3   126  ASP126     -0.1225
     99  CA        51.9650   46.0000  -62.2070 C.3   126  ASP126      0.1805
    100  C         51.1740   45.4810  -60.9950 C.2   126  ASP126      0.2598
    101  O         50.3430   44.5860  -61.1210 O.2   126  ASP126     -0.2718
    102  CB        53.3480   45.3290  -62.3020 C.3   126  ASP126      0.1424
    103  CG        54.0590   45.6360  -63.6250 C.2   126  ASP126      0.3668
    104  OD1       55.2270   46.0860  -63.5790 O.co2 126  ASP126     -0.2456
    105  OD2       53.4240   45.4580  -64.6970 O.co2 126  ASP126     -0.2456
    106  N         51.4100   46.0930  -59.8350 N.am  127  CYS127     -0.1970
    107  CA        50.8530   45.6370  -58.5530 C.3   127  CYS127      0.1712
    108  C         49.7630   46.5420  -57.9710 C.2   127  CYS127      0.2296
    109  O         48.8580   46.0480  -57.2890 O.2   127  CYS127     -0.2864
    110  CB        51.9770   45.5100  -57.5250 C.3   127  CYS127      0.0983
    111  SG        53.3120   44.3140  -57.9240 S.3   127  CYS127     -0.0798
    112  N         46.7660   42.1820  -64.4980 N.3   146  ARG146     -0.1245
    113  CA        46.7440   41.1580  -65.5680 C.3   146  ARG146      0.1563
    114  C         45.4890   40.3040  -65.5790 C.2   146  ARG146      0.2260
    115  O         45.2560   39.5340  -64.6310 O.2   146  ARG146     -0.2867
    116  CB        47.9830   40.2550  -65.4910 C.3   146  ARG146      0.0307
    117  CG        49.2960   41.0060  -65.3680 C.3   146  ARG146      0.0489
    118  CD        49.6940   41.7280  -66.6450 C.3   146  ARG146      0.2205
    119  NE        51.1490   41.9270  -66.7190 N.pl3 146  ARG146     -0.0865
    120  CZ        51.8040   42.9790  -66.2510 C.cat 146  ARG146      0.5346
    121  NH1       51.1550   43.9600  -65.6340 N.pl3 146  ARG146      0.1354
    122  NH2       53.1230   43.0490  -66.3770 N.pl3 146  ARG146      0.1354
    123  N         49.2670   39.0720  -55.9800 N.3   172  VAL172     -0.1231
    124  CA        50.0290   40.0920  -56.6930 C.3   172  VAL172      0.1692
    125  C         51.3820   39.5300  -57.2550 C.2   172  VAL172      0.2592
    126  O         51.8550   39.9260  -58.3350 O.2   172  VAL172     -0.2718
    127  CB        50.1730   41.3140  -55.7510 C.3   172  VAL172      0.0266
    128  CG1       51.3640   42.1710  -56.0600 C.3   172  VAL172      0.0020
    129  CG2       48.8700   42.1330  -55.7590 C.3   172  VAL172      0.0020
    130  N         51.9740   38.5880  -56.5280 N.am  173  CYS173     -0.1970
    131  CA        53.1630   37.8890  -56.9900 C.3   173  CYS173      0.1712
    132  C         52.7290   36.7650  -57.9440 C.2   173  CYS173      0.2296
    133  O         53.3950   36.4830  -58.9390 O.2   173  CYS173     -0.2864
    134  CB        53.9370   37.3280  -55.7830 C.3   173  CYS173      0.0983
    135  SG        54.1970   38.5260  -54.4290 S.3   173  CYS173     -0.0798
    136  N         50.6850   36.8240  -60.2050 N.3   175  GLN175     -0.1231
    137  CA        50.4520   37.2930  -61.5640 C.3   175  GLN175      0.1698
    138  C         51.5430   36.7660  -62.5230 C.2   175  GLN175      0.2592
    139  O         51.2400   36.4190  -63.6760 O.2   175  GLN175     -0.2718
    140  CB        50.4600   38.8080  -61.5790 C.3   175  GLN175      0.0381
    141  CG        49.2600   39.4330  -60.8950 C.3   175  GLN175      0.0905
    142  CD        49.2770   40.9250  -61.0560 C.2   175  GLN175      0.2608
    143  OE1       48.4940   41.4710  -61.8450 O.2   175  GLN175     -0.2717
    144  NE2       50.2030   41.6010  -60.3580 N.am  175  GLN175     -0.0878
    145  N         52.7840   36.7170  -62.0240 N.am  176  CYS176     -0.1956
    146  CA        53.9510   36.3020  -62.8080 C.3   176  CYS176      0.1843
    147  C         54.6380   35.0160  -62.3160 C.2   176  CYS176      0.2625
    148  O         55.0790   34.1930  -63.1380 O.2   176  CYS176     -0.2714
    149  CB        54.9800   37.4080  -62.8160 C.3   176  CYS176      0.0997
    150  SG        54.3510   39.0950  -63.2850 S.3   176  CYS176     -0.0797
    151  N         54.7480   34.8510  -60.9900 N.am  177  HIS177     -0.1973
    152  CA        55.4870   33.7230  -60.4120 C.3   177  HIS177      0.1656
    153  C         54.6920   32.4390  -60.3930 C.2   177  HIS177      0.2291
    154  O         54.3690   31.9100  -59.3320 O.2   177  HIS177     -0.2864
    155  CB        56.0140   34.0860  -59.0330 C.3   177  HIS177      0.0771
    156  CG        57.1260   35.0850  -59.0770 C.ar  177  HIS177      0.0820
    157  ND1       58.4460   34.7170  -59.1830 N.ar  177  HIS177     -0.2267
    158  CD2       57.1090   36.4410  -59.0780 C.ar  177  HIS177      0.1154
    159  CE1       59.2040   35.8060  -59.2200 C.ar  177  HIS177      0.1986
    160  NE2       58.4140   36.8700  -59.1830 N.ar  177  HIS177     -0.2212
    161  N         53.9160   35.8320  -49.3560 N.3   246  CYS246     -0.1221
    162  CA        55.2080   36.1210  -50.0030 C.3   246  CYS246      0.1808
    163  C         55.8750   37.3340  -49.3740 C.2   246  CYS246      0.2601
    164  O         57.0910   37.3660  -49.1700 O.2   246  CYS246     -0.2717
    165  CB        55.0700   36.3210  -51.5330 C.3   246  CYS246      0.0970
    166  SG        53.9070   35.2680  -52.4020 S.3   246  CYS246     -0.0800
    167  N         55.0330   38.3210  -49.0860 N.am  247  ILE247     -0.1979
    168  CA        55.3770   39.6180  -48.5130 C.3   247  ILE247      0.1595
    169  C         55.9860   39.5010  -47.1000 C.2   247  ILE247      0.2287
    170  O         57.0040   40.1510  -46.8170 O.2   247  ILE247     -0.2864
    171  CB        54.0800   40.5560  -48.5590 C.3   247  ILE247      0.0276
    172  CG1       53.9520   41.2110  -49.9370 C.3   247  ILE247      0.0022
    173  CG2       54.0570   41.6130  -47.4950 C.3   247  ILE247      0.0022
    174  CD1       53.5550   40.2440  -51.0450 C.3   247  ILE247      0.0001
    175  N         59.4500   38.3510  -48.2170 N.3   250  HIS250     -0.1226
    176  CA        60.1470   39.0570  -49.3220 C.3   250  HIS250      0.1752
    177  C         60.0280   40.6000  -49.3110 C.2   250  HIS250      0.2595
    178  O         60.9530   41.3080  -49.7430 O.2   250  HIS250     -0.2718
    179  CB        59.6910   38.4960  -50.6730 C.3   250  HIS250      0.0759
    180  CG        60.2700   37.1540  -50.9910 C.ar  250  HIS250      0.0818
    181  ND1       61.6150   36.9630  -51.2310 N.ar  250  HIS250     -0.2268
    182  CD2       59.6920   35.9370  -51.0820 C.ar  250  HIS250      0.1154
    183  CE1       61.8350   35.6870  -51.4850 C.ar  250  HIS250      0.1986
    184  NE2       60.6870   35.0390  -51.3930 N.ar  250  HIS250     -0.2212
    185  N         58.8940   41.0830  -48.8060 N.am  251  MET251     -0.1979
    186  CA        58.5830   42.5100  -48.6720 C.3   251  MET251      0.1605
    187  C         58.2030   42.8660  -47.2240 C.2   251  MET251      0.2287
    188  O         57.0130   43.0990  -46.9530 O.2   251  MET251     -0.2864
    189  CB        57.3870   42.8560  -49.5520 C.3   251  MET251      0.0413
    190  CG        57.6080   42.7760  -51.0510 C.3   251  MET251      0.0598
    191  SD        56.2710   43.6020  -51.9530 S.3   251  MET251     -0.1393
    192  CE        56.9060   45.2660  -51.9970 C.3   251  MET251      0.0692
    193  N         62.6040   43.8260  -53.1100 N.3   267  ILE267     -0.1231
    194  CA        62.2950   42.3830  -53.1970 C.3   267  ILE267      0.1692
    195  C         63.5220   41.5100  -53.5220 C.2   267  ILE267      0.2593
    196  O         64.0540   41.5550  -54.6380 O.2   267  ILE267     -0.2718
    197  CB        61.1830   42.1340  -54.2200 C.3   267  ILE267      0.0266
    198  CG1       59.9050   42.8690  -53.7790 C.3   267  ILE267      0.0019
    199  CG2       60.9860   40.6200  -54.4370 C.3   267  ILE267      0.0020
    200  CD1       58.7550   42.8490  -54.7520 C.3   267  ILE267      0.0001
    201  N         63.9620   40.7290  -52.5310 N.am  268  GLY268     -0.1942
    202  CA        65.1850   39.9210  -52.6290 C.3   268  GLY268      0.2014
    203  C         65.2320   38.7210  -51.6850 C.2   268  GLY268      0.2638
    204  O         64.1840   38.0930  -51.3900 O.2   268  GLY268     -0.2714
    205  N         66.4370   38.3820  -51.2260 N.am  269  ASN269     -0.1972
    206  CA        66.6020   37.2230  -50.3430 C.3   269  ASN269      0.1688
    207  C         66.2040   37.6360  -48.9220 C.2   269  ASN269      0.2292
    208  O         66.8420   38.5230  -48.3540 O.2   269  ASN269     -0.2864
    209  CB        68.0390   36.6850  -50.3610 C.3   269  ASN269      0.1181
    210  CG        68.1640   35.3340  -49.6500 C.2   269  ASN269      0.2629
    211  OD1       67.5260   35.0970  -48.6250 O.2   269  ASN269     -0.2716
    212  ND2       68.9590   34.4320  -50.2150 N.am  269  ASN269     -0.0877
@<TRIPOS>BOND
     1    70    69    2
     2    69    68    1
     3    68    67    1
     4    68    71    1
     5    86    85    1
     6    86    87    1
     7    85    82    1
     8    88    87    1
     9    88    89    1
    10    65    64    2
    11    75    76    1
    12    71    72    1
    13    73    72   ar
    14    64    63    1
    15    81    82    1
    16    81    77   am
    17    82    83    1
    18    72    74   ar
    19    83    84    2
    20    76    77    1
    21    76    79    1
    22   119   118    1
    23   119   120    2
    24    77    78    2
    25    80    79    1
    26    54    53    2
    27   118   117    1
    28    36    34    1
    29   122   120    1
    30   120   121    1
    31    63    66    1
    32    63    62    1
    33    53    62   am
    34    53    52    1
    35   114   113    1
    36   114   115    2
    37   113   116    1
    38   113   112    1
    39   116   117    1
    40    34    33    2
    41    34    35    1
    42    52    55    1
    43    52    51    1
    44    90    91    1
    45   105   103   ar
    46    33    32    1
    47    57    59   ar
    48    57    56   ar
    49    55    56    1
    50    59    61   ar
    51    91    94    1
    52    91    92    1
    53    10    11    1
    54   139   138    2
    55    56    58   ar
    56   103   104   ar
    57   103   102    1
    58    94    95    1
    59   150   149    1
    60    32    31    1
    61   148   147    2
    62    13    12    2
    63    44    43    2
    64   149   146    1
    65   146   147    1
    66   146   145    1
    67    96    95    1
    68    95    97    1
    69    31    30    1
    70    92    93    2
    71    11    12    1
    72    11    14    1
    73   138   145   am
    74   138   137    1
    75    12    19   am
    76    61    60   ar
    77   147   151   am
    78   102    99    1
    79    58    60   ar
    80    99    98    1
    81    99   100    1
    82   143   142    2
    83    43    42    1
    84    19    20    1
    85    19    25    1
    86    20    21    1
    87    20    23    1
    88    40    39    2
    89   140   137    1
    90   140   141    1
    91   137   136    1
    92    26    21   am
    93    26    27    1
    94    14    15    1
    95    30    27    1
    96    15    16    1
    97   101   100    2
    98   142   141    1
    99   142   144   am
   100    21    22    2
   101    23    24    1
   102   100   106   am
   103   151   152    1
   104    25    24    2
   105    42    45    1
   106    42    41    1
   107    27    28    1
   108    39    41   am
   109    39    38    1
   110    29    28    2
   111   152   153    1
   112   152   155    1
   113   153   154    2
   114    28    37   am
   115    45    46    1
   116    16    17    1
   117    37    38    1
   118    18    17    1
   119    48    46   ar
   120    48    50   ar
   121   106   107    1
   122    46    47   ar
   123     4     3    2
   124   159   157   ar
   125   159   160   ar
   126   157   156   ar
   127   160   158   ar
   128   158   156   ar
   129   156   155    1
   130    50    49   ar
   131   133   132    2
   132     3     2    1
   133   107   108    1
   134   107   110    1
   135    47    49   ar
   136   126   125    2
   137   108   109    2
   138   132   131    1
   139   111   110    1
   140   125   124    1
   141   125   130   am
   142     2     1    1
   143     2     5    1
   144   131   130    1
   145   131   134    1
   146     5     6    1
   147   124   123    1
   148   124   127    1
   149   128   127    1
   150   134   135    1
   151   129   127    1
   152     8     7    2
   153     6     7    1
   154     7     9   am
   155   200   198    1
   156   196   195    2
   157   199   197    1
   158   197   198    1
   159   197   194    1
   160   195   194    1
   161   195   201   am
   162   194   193    1
   163   202   201    1
   164   202   203    1
   165   166   165    1
   166   192   191    1
   167   191   190    1
   168   203   204    2
   169   203   205   am
   170   165   162    1
   171   183   184   ar
   172   183   181   ar
   173   184   182   ar
   174   181   180   ar
   175   205   206    1
   176   182   180   ar
   177   190   189    1
   178   174   172    1
   179   180   179    1
   180   179   176    1
   181   209   206    1
   182   209   210    1
   183   206   207    1
   184   212   210   am
   185   162   163    1
   186   162   161    1
   187   172   171    1
   188   178   177    2
   189   210   211    2
   190   189   186    1
   191   163   164    2
   192   163   167   am
   193   176   177    1
   194   176   175    1
   195   177   185   am
   196   167   168    1
   197   207   208    2
   198   185   186    1
   199   186   187    1
   200   171   168    1
   201   171   173    1
   202   168   169    1
   203   187   188    2
   204   169   170    2
