@<TRIPOS>MOLECULE
tmp/2rfcD01.pdb
 88 79 0 0 0
SMALL
GASTEIGER

@<TRIPOS>ATOM
      1  N         -1.6890  -56.6080   64.7700 N.3    39  GLY39      -0.1225
      2  CA        -0.9360  -55.6920   63.9290 C.3    39  GLY39       0.1811
      3  C         -0.1330  -56.4050   62.8570 C.2    39  GLY39       0.2280
      4  O          0.8350  -57.1120   63.1430 O.2    39  GLY39      -0.2866
      5  N          3.7170  -52.2500   60.7160 N.3    43  ILE43      -0.1245
      6  CA         3.5930  -51.6020   62.0100 C.3    43  ILE43       0.1561
      7  C          4.2750  -52.4940   63.0270 C.2    43  ILE43       0.2260
      8  O          4.2370  -52.2430   64.2270 O.2    43  ILE43      -0.2867
      9  CB         2.1240  -51.3740   62.4170 C.3    43  ILE43       0.0252
     10  CG1        2.0690  -50.5080   63.6860 C.3    43  ILE43       0.0019
     11  CG2        1.4330  -52.7100   62.6400 C.3    43  ILE43       0.0019
     12  CD1        0.6810  -50.0750   64.0980 C.3    43  ILE43       0.0001
     13  N         -4.2490  -53.5130   57.8110 N.3   179  LEU179     -0.1245
     14  CA        -3.6120  -52.5600   58.7110 C.3   179  LEU179      0.1561
     15  C         -4.2170  -51.1730   58.5360 C.2   179  LEU179      0.2260
     16  O         -4.5680  -50.5270   59.5200 O.2   179  LEU179     -0.2867
     17  CB        -2.1020  -52.4970   58.4310 C.3   179  LEU179      0.0270
     18  CG        -1.1980  -51.7340   59.4130 C.3   179  LEU179      0.0019
     19  CD1       -0.9410  -52.6020   60.6210 C.3   179  LEU179      0.0001
     20  CD2        0.1230  -51.3870   58.7690 C.3   179  LEU179      0.0001
     21  N         -7.9760  -51.2900   59.8880 N.3   182  ILE182     -0.1231
     22  CA        -7.9030  -51.2870   61.3470 C.3   182  ILE182      0.1692
     23  C         -7.6100  -49.8770   61.8560 C.2   182  ILE182      0.2592
     24  O         -8.2100  -49.4270   62.8280 O.2   182  ILE182     -0.2718
     25  CB        -6.7670  -52.2020   61.8640 C.3   182  ILE182      0.0266
     26  CG1       -7.0420  -53.6610   61.5060 C.3   182  ILE182      0.0019
     27  CG2       -6.6180  -52.0460   63.3610 C.3   182  ILE182      0.0020
     28  CD1       -5.9690  -54.6120   61.9880 C.3   182  ILE182      0.0001
     29  N         -6.6890  -49.1830   61.1920 N.am  183  GLY183     -0.1957
     30  CA        -6.3390  -47.8400   61.6130 C.3   183  GLY183      0.1869
     31  C         -7.3910  -46.7750   61.3820 C.2   183  GLY183      0.2309
     32  O         -7.8280  -46.1220   62.3170 O.2   183  GLY183     -0.2863
     33  N        -11.4040  -47.5970   64.4030 N.3   186  GLU186     -0.1231
     34  CA       -11.3840  -47.6470   65.8690 C.3   186  GLU186      0.1699
     35  C        -11.0230  -46.3430   66.5810 C.2   186  GLU186      0.2592
     36  O        -11.8720  -45.6850   67.1880 O.2   186  GLU186     -0.2718
     37  CB       -10.4160  -48.7520   66.3140 C.3   186  GLU186      0.0402
     38  CG       -10.9090  -49.6720   67.4460 C.3   186  GLU186      0.1161
     39  CD       -10.7830  -49.0650   68.8330 C.2   186  GLU186      0.3649
     40  OE1       -9.6940  -48.5460   69.1560 O.co2 186  GLU186     -0.2457
     41  OE2      -11.7650  -49.1260   69.6050 O.co2 186  GLU186     -0.2457
     42  N         -9.7480  -45.9880   66.4980 N.am  187  THR187     -0.1953
     43  CA        -9.1930  -44.7880   67.1280 C.3   187  THR187      0.1897
     44  C         -9.8150  -43.4620   66.6700 C.2   187  THR187      0.2313
     45  O        -10.0370  -42.5390   67.4680 O.2   187  THR187     -0.2863
     46  CB        -7.6910  -44.7320   66.8610 C.3   187  THR187      0.1794
     47  OG1       -7.4690  -44.8000   65.4490 O.3   187  THR187     -0.2208
     48  CG2       -7.0000  -45.9050   67.5160 C.3   187  THR187      0.0378
     49  N         -5.6040  -43.7510   71.8500 N.3   227  ILE227     -0.1245
     50  CA        -4.8140  -44.9180   72.1990 C.3   227  ILE227      0.1561
     51  C         -3.9400  -44.4450   73.3220 C.2   227  ILE227      0.2260
     52  O         -3.1260  -43.5570   73.1270 O.2   227  ILE227     -0.2867
     53  CB        -3.9210  -45.3760   71.0870 C.3   227  ILE227      0.0252
     54  CG1       -4.7600  -45.7100   69.8650 C.3   227  ILE227      0.0019
     55  CG2       -3.1460  -46.5940   71.5480 C.3   227  ILE227      0.0019
     56  CD1       -3.9670  -46.3110   68.7300 C.3   227  ILE227      0.0001
     57  N          1.2750  -47.9860   73.9070 N.3   230  LEU230     -0.1245
     58  CA         1.6750  -48.9600   72.9100 C.3   230  LEU230      0.1561
     59  C          2.5600  -49.9760   73.5820 C.2   230  LEU230      0.2260
     60  O          3.5890  -49.6190   74.1470 O.2   230  LEU230     -0.2867
     61  CB         2.4290  -48.2820   71.7830 C.3   230  LEU230      0.0270
     62  CG         1.5480  -47.3120   71.0080 C.3   230  LEU230      0.0019
     63  CD1        2.4020  -46.5130   70.0650 C.3   230  LEU230      0.0001
     64  CD2        0.4670  -48.0790   70.2630 C.3   230  LEU230      0.0001
     65  N          3.7350  -53.1260   71.9450 N.3   232  HIS232     -0.1241
     66  CA         4.6100  -53.9240   71.0980 C.3   232  HIS232      0.1621
     67  C          5.9440  -53.2770   70.7740 C.2   232  HIS232      0.2264
     68  O          6.1650  -52.7560   69.6840 O.2   232  HIS232     -0.2867
     69  CB         3.8950  -54.3240   69.8010 C.3   232  HIS232      0.0745
     70  CG         2.5670  -54.9820   70.0210 C.ar  232  HIS232      0.0817
     71  ND1        2.3480  -55.9010   71.0280 N.ar  232  HIS232     -0.2268
     72  CD2        1.3880  -54.8550   69.3640 C.ar  232  HIS232      0.1154
     73  CE1        1.0920  -56.3090   70.9840 C.ar  232  HIS232      0.1986
     74  NE2        0.4890  -55.6910   69.9830 N.ar  232  HIS232     -0.2212
     75  N          1.9640  -42.2130   63.0580 N.3   290  CYS290     -0.1235
     76  CA         0.7590  -42.4570   62.2720 C.3   290  CYS290      0.1677
     77  C          0.7790  -41.9580   60.8380 C.2   290  CYS290      0.2270
     78  O          0.8390  -40.7580   60.5680 O.2   290  CYS290     -0.2867
     79  CB        -0.4610  -41.8780   62.9890 C.3   290  CYS290      0.0956
     80  SG        -1.8150  -42.8210   62.2780 S.3   290  CYS290     -0.0801
     81  N         -6.6770  -49.5530   77.1790 N.3   328  MET328     -0.1245
     82  CA        -5.6900  -49.3370   76.1030 C.3   328  MET328      0.1570
     83  C         -6.1820  -48.3060   75.1010 C.2   328  MET328      0.2261
     84  O         -5.4350  -47.8750   74.2200 O.2   328  MET328     -0.2867
     85  CB        -5.3810  -50.6340   75.3470 C.3   328  MET328      0.0387
     86  CG        -4.4230  -50.4500   74.1670 C.3   328  MET328      0.0595
     87  SD        -3.9610  -52.0190   73.3660 S.3   328  MET328     -0.1393
     88  CE        -3.7420  -51.5080   71.6140 C.3   328  MET328      0.0692
@<TRIPOS>BOND
     1    13    14    1
     2    17    14    1
     3    17    18    1
     4    15    14    1
     5    15    16    2
     6    20    18    1
     7    18    19    1
     8    21    22    1
     9    78    77    2
    10     5     6    1
    11    77    76    1
    12    29    30    1
    13    29    23   am
    14    22    23    1
    15    22    25    1
    16    31    30    1
    17    31    32    2
    18    26    25    1
    19    26    28    1
    20    23    24    2
    21    25    27    1
    22     6     9    1
    23     6     7    1
    24    76    79    1
    25    76    75    1
    26    80    79    1
    27     9    11    1
    28     9    10    1
    29     3     4    2
    30     3     2    1
    31     7     8    2
    32    10    12    1
    33     2     1    1
    34    33    34    1
    35    47    46    1
    36    34    37    1
    37    34    35    1
    38    37    38    1
    39    42    35   am
    40    42    43    1
    41    35    36    2
    42    44    43    1
    43    44    45    2
    44    46    43    1
    45    46    48    1
    46    38    39    1
    47    56    54    1
    48    39    40   ar
    49    39    41   ar
    50    72    74   ar
    51    72    70   ar
    52    68    67    2
    53    69    70    1
    54    69    66    1
    55    54    53    1
    56    74    73   ar
    57    70    71   ar
    58    63    62    1
    59    64    62    1
    60    67    66    1
    61    73    71   ar
    62    62    61    1
    63    53    55    1
    64    53    50    1
    65    66    65    1
    66    88    87    1
    67    61    58    1
    68    49    50    1
    69    50    51    1
    70    58    59    1
    71    58    57    1
    72    52    51    2
    73    87    86    1
    74    59    60    2
    75    86    85    1
    76    84    83    2
    77    83    82    1
    78    85    82    1
    79    82    81    1
