@<TRIPOS>MOLECULE
tmp/2rfhA00.pdb
 158 148 0 0 0
SMALL
GASTEIGER

@<TRIPOS>ATOM
      1  N         14.6330   -1.2130   22.5160 N.3    69  HIS69      -0.1241
      2  CA        15.7280   -1.8240   23.2650 C.3    69  HIS69       0.1621
      3  C         17.0130   -1.1600   22.8070 C.2    69  HIS69       0.2264
      4  O         17.4040   -1.2930   21.6480 O.2    69  HIS69      -0.2867
      5  CB        15.7670   -3.3220   23.0050 C.3    69  HIS69       0.0745
      6  CG        14.6490   -4.0710   23.6610 C.ar   69  HIS69       0.0817
      7  ND1       14.0170   -5.1400   23.0600 N.ar   69  HIS69      -0.2268
      8  CD2       14.0460   -3.9030   24.8640 C.ar   69  HIS69       0.1154
      9  CE1       13.0770   -5.6040   23.8640 C.ar   69  HIS69       0.1986
     10  NE2       13.0920   -4.8870   24.9750 N.ar   69  HIS69      -0.2212
     11  N         20.1930   -2.3360   20.5210 N.3    72  GLU72      -0.1245
     12  CA        19.9080   -2.9100   19.2170 C.3    72  GLU72       0.1567
     13  C         20.1780   -1.8540   18.1560 C.2    72  GLU72       0.2260
     14  O         19.2840   -1.4450   17.4090 O.2    72  GLU72      -0.2867
     15  CB        18.4660   -3.4280   19.1850 C.3    72  GLU72       0.0388
     16  CG        18.2900   -4.5820   20.1310 C.3    72  GLU72       0.1160
     17  CD        16.8630   -5.0460   20.3350 C.2    72  GLU72       0.3649
     18  OE1       15.9410   -4.6370   19.5910 O.co2  72  GLU72      -0.2457
     19  OE2       16.6810   -5.8700   21.2790 O.co2  72  GLU72      -0.2457
     20  N         19.7400   -2.4180   27.7290 N.3   127  ARG127     -0.1245
     21  CA        18.5290   -2.6720   26.9370 C.3   127  ARG127      0.1563
     22  C         17.2760   -1.9630   27.4390 C.2   127  ARG127      0.2260
     23  O         16.4180   -1.5690   26.6480 O.2   127  ARG127     -0.2867
     24  CB        18.2670   -4.1620   26.7890 C.3   127  ARG127      0.0307
     25  CG        17.8060   -4.8670   28.0150 C.3   127  ARG127      0.0489
     26  CD        17.7590   -6.3490   27.7990 C.3   127  ARG127      0.2205
     27  NE        17.1320   -6.7580   26.5490 N.pl3 127  ARG127     -0.0865
     28  CZ        15.8430   -7.0620   26.4350 C.cat 127  ARG127      0.5346
     29  NH1       15.0720   -6.9700   27.4950 N.pl3 127  ARG127      0.1354
     30  NH2       15.3450   -7.4750   25.2690 N.pl3 127  ARG127      0.1354
     31  N          9.5520   -3.3080   26.1540 N.3   144  ASN144     -0.1225
     32  CA         8.7210   -4.2070   25.3450 C.3   144  ASN144      0.1785
     33  C          8.0670   -5.3300   26.1490 C.2   144  ASN144      0.2597
     34  O          7.6480   -6.3450   25.5900 O.2   144  ASN144     -0.2718
     35  CB         9.4330   -4.7140   24.0970 C.3   144  ASN144      0.1169
     36  CG         8.4550   -5.0980   22.9930 C.2   144  ASN144      0.2627
     37  OD1        7.3620   -4.5240   22.8910 O.2   144  ASN144     -0.2716
     38  ND2        8.8140   -6.1290   22.2040 N.am  144  ASN144     -0.0877
     39  N          7.9750   -5.1240   27.4650 N.am  145  ARG145     -0.1979
     40  CA         7.1890   -5.9720   28.3780 C.3   145  ARG145      0.1597
     41  C          6.2050   -5.1280   29.2250 C.2   145  ARG145      0.2287
     42  O          5.5470   -5.6390   30.1460 O.2   145  ARG145     -0.2864
     43  CB         8.1480   -6.8050   29.2500 C.3   145  ARG145      0.0334
     44  CG         8.7120   -7.8980   28.3750 C.3   145  ARG145      0.0492
     45  CD         9.6550   -8.8330   29.0220 C.3   145  ARG145      0.2205
     46  NE         9.7040  -10.0290   28.1740 N.pl3 145  ARG145     -0.0865
     47  CZ        10.5710  -10.2120   27.1750 C.cat 145  ARG145      0.5346
     48  NH1       11.4950   -9.2940   26.8940 N.pl3 145  ARG145      0.1354
     49  NH2       10.5400  -11.3210   26.4730 N.pl3 145  ARG145      0.1354
     50  N         14.1970   -8.4030   31.6940 N.3   164  THR164     -0.1218
     51  CA        12.8540   -8.4920   31.1510 C.3   164  THR164      0.1862
     52  C         11.8000   -8.0180   32.1520 C.2   164  THR164      0.2287
     53  O         10.6210   -8.3720   32.0600 O.2   164  THR164     -0.2866
     54  CB        12.5670   -9.9340   30.6830 C.3   164  THR164      0.1770
     55  OG1       12.8050  -10.8540   31.7590 O.3   164  THR164     -0.2211
     56  CG2       13.4770  -10.2800   29.5170 C.3   164  THR164      0.0375
     57  N         13.3250   -4.4830   15.9980 N.3   196  HIS196     -0.1226
     58  CA        14.3010   -4.9640   16.9580 C.3   196  HIS196      0.1752
     59  C         15.4680   -5.6430   16.2480 C.2   196  HIS196      0.2596
     60  O         15.4540   -5.8200   15.0230 O.2   196  HIS196     -0.2718
     61  CB        13.6370   -6.0180   17.8540 C.3   196  HIS196      0.0759
     62  CG        12.6210   -5.4520   18.7830 C.ar  196  HIS196      0.0818
     63  ND1       12.8230   -5.3850   20.1470 N.ar  196  HIS196     -0.2268
     64  CD2       11.3900   -4.9380   18.5520 C.ar  196  HIS196      0.1154
     65  CE1       11.7590   -4.8460   20.7150 C.ar  196  HIS196      0.1986
     66  NE2       10.8800   -4.5470   19.7670 N.ar  196  HIS196     -0.2212
     67  N         16.4700   -6.0270   17.0270 N.am  197  SER197     -0.1952
     68  CA        17.4610   -7.0320   16.5730 C.3   197  SER197      0.1924
     69  C         17.8610   -7.8780   17.7720 C.2   197  SER197      0.2314
     70  O         17.6190   -7.4660   18.9070 O.2   197  SER197     -0.2863
     71  CB        18.7070   -6.3650   15.9690 C.3   197  SER197      0.2116
     72  OG        19.5930   -5.8990   16.9750 O.3   197  SER197     -0.2180
     73  N          7.6680  -11.4630   13.0260 N.3   203  LEU203     -0.1245
     74  CA         6.7300  -12.0530   13.9930 C.3   203  LEU203      0.1561
     75  C          5.4230  -11.2890   14.0000 C.2   203  LEU203      0.2260
     76  O          5.4260  -10.0770   13.8610 O.2   203  LEU203     -0.2867
     77  CB         7.3300  -11.9920   15.4010 C.3   203  LEU203      0.0270
     78  CG         8.7350  -12.5660   15.5490 C.3   203  LEU203      0.0019
     79  CD1        9.2290  -12.2360   16.9150 C.3   203  LEU203      0.0001
     80  CD2        8.7060  -14.0490   15.2920 C.3   203  LEU203      0.0001
     81  N          4.7550  -14.6950   17.6030 N.3   243  ILE243     -0.1245
     82  CA         5.7940  -14.5540   18.6190 C.3   243  ILE243      0.1561
     83  C          5.9420  -15.8440   19.4350 C.2   243  ILE243      0.2260
     84  O          7.0460  -16.4000   19.5460 O.2   243  ILE243     -0.2867
     85  CB         5.5110  -13.3750   19.5550 C.3   243  ILE243      0.0252
     86  CG1        5.6310  -12.0530   18.7990 C.3   243  ILE243      0.0019
     87  CG2        6.4560  -13.3750   20.7640 C.3   243  ILE243      0.0019
     88  CD1        4.9220  -10.9580   19.5220 C.3   243  ILE243      0.0001
     89  N          9.4950  -17.8920   19.0390 N.3   247  ILE247     -0.1231
     90  CA        10.4840  -17.7230   20.0910 C.3   247  ILE247      0.1692
     91  C         10.0140  -18.4870   21.3300 C.2   247  ILE247      0.2592
     92  O         10.4880  -19.5880   21.6120 O.2   247  ILE247     -0.2718
     93  CB        10.7030  -16.2300   20.4240 C.3   247  ILE247      0.0266
     94  CG1       10.7230  -15.3900   19.1360 C.3   247  ILE247      0.0019
     95  CG2       11.9770  -16.0610   21.2270 C.3   247  ILE247      0.0020
     96  CD1       10.8880  -13.9030   19.3470 C.3   247  ILE247      0.0001
     97  N          9.0600  -17.8940   22.0380 N.am  248  TYR248     -0.1976
     98  CA         8.4390  -18.4480   23.2540 C.3   248  TYR248      0.1639
     99  C          7.4900  -17.3820   23.7680 C.2   248  TYR248      0.2290
    100  O          7.3220  -16.3320   23.1390 O.2   248  TYR248     -0.2864
    101  CB         9.4810  -18.7510   24.3580 C.3   248  TYR248      0.0560
    102  CG        10.5810  -17.7100   24.4510 C.ar  248  TYR248     -0.0198
    103  CD1       11.9190  -18.0660   24.2490 C.ar  248  TYR248     -0.0009
    104  CD2       10.2850  -16.3690   24.7000 C.ar  248  TYR248     -0.0009
    105  CE1       12.9310  -17.1190   24.3180 C.ar  248  TYR248      0.0417
    106  CE2       11.2820  -15.4140   24.7530 C.ar  248  TYR248      0.0417
    107  CZ        12.6010  -15.7990   24.5600 C.ar  248  TYR248      0.1957
    108  OH        13.6040  -14.8630   24.6130 O.3   248  TYR248     -0.2866
    109  N          6.0990  -14.2830   25.6430 N.3   250  ALA250     -0.1245
    110  CA         6.5860  -12.9280   25.9300 C.3   250  ALA250      0.1562
    111  C          5.3270  -12.1190   26.1350 C.2   250  ALA250      0.2260
    112  O          4.4240  -12.1510   25.2930 O.2   250  ALA250     -0.2867
    113  CB         7.3820  -12.3760   24.7800 C.3   250  ALA250      0.0290
    114  N          3.8860   -7.0700   25.3430 N.3   253  GLY253     -0.1210
    115  CA         4.5750   -6.6620   24.1040 C.3   253  GLY253      0.1956
    116  C          3.8210   -5.6620   23.2370 C.2   253  GLY253      0.2613
    117  O          2.5820   -5.6120   23.2560 O.2   253  GLY253     -0.2717
    118  N          4.5700   -4.8750   22.4620 N.am  254  SER254     -0.1938
    119  CA         3.9800   -3.7540   21.7110 C.3   254  SER254      0.2055
    120  C          2.9450   -4.1690   20.6510 C.2   254  SER254      0.2642
    121  O          1.8750   -3.5430   20.5480 O.2   254  SER254     -0.2714
    122  CB         5.0710   -2.8670   21.0870 C.3   254  SER254      0.2130
    123  OG         5.7840   -3.5650   20.0930 O.3   254  SER254     -0.2179
    124  N          3.2550   -5.2070   19.8680 N.am  255  ILE255     -0.1977
    125  CA         2.3670   -5.5960   18.7550 C.3   255  ILE255      0.1596
    126  C          1.1580   -6.3860   19.2660 C.2   255  ILE255      0.2287
    127  O          0.1240   -6.4330   18.6100 O.2   255  ILE255     -0.2864
    128  CB         3.0890   -6.3590   17.6000 C.3   255  ILE255      0.0276
    129  CG1        3.6230   -7.7420   18.0390 C.3   255  ILE255      0.0022
    130  CG2        4.1270   -5.4470   16.8630 C.3   255  ILE255      0.0022
    131  CD1        4.0260   -8.6550   16.8490 C.3   255  ILE255      0.0001
    132  N          6.5080   -7.5340   14.3310 N.3   268  THR268     -0.1218
    133  CA         7.7960   -7.1900   14.9210 C.3   268  THR268      0.1862
    134  C          8.9060   -7.7800   14.0460 C.2   268  THR268      0.2287
    135  O          8.8660   -8.9670   13.7100 O.2   268  THR268     -0.2866
    136  CB         7.9340   -7.6830   16.3840 C.3   268  THR268      0.1770
    137  OG1        6.9230   -7.0810   17.2090 O.3   268  THR268     -0.2211
    138  CG2        9.3310   -7.3410   16.9460 C.3   268  THR268      0.0375
    139  N         12.9000   -8.7100   13.7660 N.3   270  GLU270     -0.1245
    140  CA        14.1790   -8.8640   14.4330 C.3   270  GLU270      0.1567
    141  C         15.1920   -8.8960   13.3130 C.2   270  GLU270      0.2260
    142  O         15.2280   -9.8420   12.5090 O.2   270  GLU270     -0.2867
    143  CB        14.2560  -10.1780   15.2350 C.3   270  GLU270      0.0388
    144  CG        13.3490  -10.1780   16.4540 C.3   270  GLU270      0.1160
    145  CD        13.8780   -9.3530   17.6100 C.2   270  GLU270      0.3649
    146  OE1       15.0370   -8.8670   17.5580 O.co2 270  GLU270     -0.2457
    147  OE2       13.1070   -9.1800   18.5710 O.co2 270  GLU270     -0.2457
    148  N         24.4600   -8.1760   18.7320 N.3   279  PHE279     -0.1241
    149  CA        24.1080   -6.7550   18.8840 C.3   279  PHE279      0.1605
    150  C         25.1550   -5.8120   18.2860 C.2   279  PHE279      0.2264
    151  O         24.8610   -4.6640   17.9230 O.2   279  PHE279     -0.2867
    152  CB        23.8790   -6.4040   20.3620 C.3   279  PHE279      0.0534
    153  CG        22.7590   -7.1640   20.9750 C.ar  279  PHE279     -0.0203
    154  CD1       21.4640   -7.0300   20.4550 C.ar  279  PHE279     -0.0042
    155  CD2       22.9860   -8.0290   22.0520 C.ar  279  PHE279     -0.0042
    156  CE1       20.3920   -7.7390   20.9890 C.ar  279  PHE279     -0.0003
    157  CE2       21.9030   -8.7420   22.6090 C.ar  279  PHE279     -0.0003
    158  CZ        20.6120   -8.5980   22.0670 C.ar  279  PHE279     -0.0000
@<TRIPOS>BOND
     1   142   141    2
     2    73    74    1
     3   141   140    1
     4   135   134    2
     5   139   140    1
     6    76    75    2
     7    74    75    1
     8    74    77    1
     9   134   133    1
    10   132   133    1
    11   140   143    1
    12   133   136    1
    13    60    59    2
    14   143   144    1
    15    80    78    1
    16    77    78    1
    17    78    79    1
    18    71    68    1
    19    71    72    1
    20    57    58    1
    21    59    58    1
    22    59    67   am
    23   136   138    1
    24   136   137    1
    25   144   145    1
    26    68    67    1
    27    68    69    1
    28   131   129    1
    29   130   128    1
    30    58    61    1
    31    14    13    2
    32   146   145   ar
    33   128   129    1
    34   128   125    1
    35    81    82    1
    36   145   147   ar
    37    69    70    2
    38    61    62    1
    39   151   150    2
    40    13    12    1
    41   150   149    1
    42    64    62   ar
    43    64    66   ar
    44   127   126    2
    45    82    83    1
    46    82    85    1
    47   148   149    1
    48   125   126    1
    49   125   124    1
    50    62    63   ar
    51    86    88    1
    52    86    85    1
    53   149   152    1
    54    89    90    1
    55    94    96    1
    56    94    93    1
    57    15    12    1
    58    15    16    1
    59    12    11    1
    60    83    84    2
    61    85    87    1
    62    18    17   ar
    63    66    65   ar
    64   124   120   am
    65    90    93    1
    66    90    91    1
    67   123   122    1
    68    16    17    1
    69    63    65   ar
    70    17    19   ar
    71   152   153    1
    72    93    95    1
    73   154   153   ar
    74   154   156   ar
    75   121   120    2
    76   120   119    1
    77   153   155   ar
    78   156   158   ar
    79   122   119    1
    80    91    92    2
    81    91    97   am
    82     4     3    2
    83   119   118    1
    84    97    98    1
    85   155   157   ar
    86   158   157   ar
    87    38    36   am
    88   118   116   am
    89     1     2    1
    90     3     2    1
    91    37    36    2
    92    36    35    1
    93     5     2    1
    94     5     6    1
    95     7     6   ar
    96     7     9   ar
    97   100    99    2
    98   116   117    2
    99   116   115    1
   100    98    99    1
   101    98   101    1
   102     6     8   ar
   103     9    10   ar
   104    35    32    1
   105   115   114    1
   106   103   105   ar
   107   103   102   ar
   108   105   107   ar
   109   101   102    1
   110   102   104   ar
   111   107   108    1
   112   107   106   ar
   113   104   106   ar
   114   113   110    1
   115     8    10   ar
   116    30    28    1
   117   112   111    2
   118    32    33    1
   119    32    31    1
   120    34    33    2
   121   109   110    1
   122   110   111    1
   123    33    39   am
   124    28    27    2
   125    28    29    1
   126    49    47    1
   127    27    26    1
   128    23    22    2
   129    24    21    1
   130    24    25    1
   131    48    47    1
   132    21    22    1
   133    21    20    1
   134    47    46    2
   135    39    40    1
   136    26    25    1
   137    46    45    1
   138    44    45    1
   139    44    43    1
   140    40    41    1
   141    40    43    1
   142    41    42    2
   143    56    54    1
   144    54    51    1
   145    54    55    1
   146    51    50    1
   147    51    52    1
   148    53    52    2
