@<TRIPOS>MOLECULE
tmp/2rfnB00.pdb
 224 211 0 0 0
SMALL
GASTEIGER

@<TRIPOS>ATOM
      1  N         56.9110   34.9280   75.4770 N.3    29  ILE29      -0.1245
      2  CA        56.5220   33.6660   74.8760 C.3    29  ILE29       0.1561
      3  C         55.4290   33.0320   75.7360 C.2    29  ILE29       0.2260
      4  O         54.4250   32.5340   75.2160 O.2    29  ILE29      -0.2867
      5  CB        57.7060   32.6810   74.7830 C.3    29  ILE29       0.0252
      6  CG1       59.0060   33.4030   74.3740 C.3    29  ILE29       0.0019
      7  CG2       57.3580   31.5980   73.8000 C.3    29  ILE29       0.0019
      8  CD1       60.2130   32.5000   74.2190 C.3    29  ILE29       0.0001
      9  N         52.8950   28.4180   80.4530 N.3    30  PHE30      -0.1241
     10  CA        54.0890   28.2760   81.3040 C.3    30  PHE30       0.1605
     11  C         54.2850   29.4970   82.1900 C.2    30  PHE30       0.2264
     12  O         55.1500   29.5170   83.0700 O.2    30  PHE30      -0.2867
     13  CB        55.3550   28.0460   80.4610 C.3    30  PHE30       0.0534
     14  CG        55.6300   26.6030   80.1610 C.ar   30  PHE30      -0.0203
     15  CD1       55.4200   26.0940   78.8860 C.ar   30  PHE30      -0.0042
     16  CD2       56.0880   25.7460   81.1620 C.ar   30  PHE30      -0.0042
     17  CE1       55.6620   24.7520   78.6130 C.ar   30  PHE30      -0.0003
     18  CE2       56.3290   24.4020   80.9030 C.ar   30  PHE30      -0.0003
     19  CZ        56.1200   23.9030   79.6290 C.ar   30  PHE30      -0.0000
     20  N         57.4890   33.6190   80.4250 N.3    33  VAL33      -0.1245
     21  CA        58.6120   33.1320   79.6150 C.3    33  VAL33       0.1561
     22  C         59.0440   34.1970   78.6070 C.2    33  VAL33       0.2260
     23  O         58.2300   34.7280   77.8670 O.2    33  VAL33      -0.2867
     24  CB        58.2300   31.8590   78.8330 C.3    33  VAL33       0.0252
     25  CG1       59.4610   31.0670   78.4720 C.3    33  VAL33       0.0019
     26  CG2       57.2550   31.0050   79.6240 C.3    33  VAL33       0.0019
     27  N         64.7100   30.4210   75.7930 N.3    49  ALA49      -0.1245
     28  CA        63.5320   30.8780   76.4970 C.3    49  ALA49       0.1562
     29  C         63.9070   30.9990   77.9680 C.2    49  ALA49       0.2260
     30  O         64.5610   30.1150   78.5320 O.2    49  ALA49      -0.2867
     31  CB        62.3770   29.9150   76.3110 C.3    49  ALA49       0.0290
     32  N         62.5200   31.6790   81.8560 N.3    51  LYS51      -0.1245
     33  CA        61.3680   31.7790   82.7440 C.3    51  LYS51       0.1561
     34  C         61.7600   32.2900   84.1160 C.2    51  LYS51       0.2260
     35  O         62.7880   31.8990   84.6740 O.2    51  LYS51      -0.2867
     36  CB        60.6020   30.4620   82.8390 C.3    51  LYS51       0.0271
     37  CG        59.3240   30.5670   83.6520 C.3    51  LYS51       0.0035
     38  CD        58.4220   29.3610   83.4520 C.3    51  LYS51       0.0206
     39  CE        57.4560   29.2110   84.6300 C.3    51  LYS51       0.1093
     40  NZ        56.4460   28.1320   84.4360 N.3    51  LYS51      -0.1314
     41  N         60.9840   32.4630   87.9270 N.3    53  LEU53      -0.1245
     42  CA        60.3090   31.7520   89.0010 C.3    53  LEU53       0.1561
     43  C         59.9590   32.7540   90.0820 C.2    53  LEU53       0.2260
     44  O         60.6960   32.8890   91.0570 O.2    53  LEU53      -0.2867
     45  CB        61.2290   30.6740   89.5850 C.3    53  LEU53       0.0270
     46  CG        61.2290   29.2410   89.0440 C.3    53  LEU53       0.0019
     47  CD1       59.8740   28.5400   89.2500 C.3    53  LEU53       0.0001
     48  CD2       61.6440   29.1850   87.5910 C.3    53  LEU53       0.0001
     49  N         65.1900   24.4840   94.6370 N.3    65  PHE65      -0.1241
     50  CA        65.3210   24.9000   93.2440 C.3    65  PHE65       0.1605
     51  C         66.6940   24.5690   92.6910 C.2    65  PHE65       0.2264
     52  O         66.8040   24.0600   91.5760 O.2    65  PHE65      -0.2867
     53  CB        65.0400   26.4040   93.1340 C.3    65  PHE65       0.0534
     54  CG        65.3430   27.0020   91.7870 C.ar   65  PHE65      -0.0203
     55  CD1       64.4970   26.7830   90.6990 C.ar   65  PHE65      -0.0042
     56  CD2       66.4580   27.8260   91.6150 C.ar   65  PHE65      -0.0042
     57  CE1       64.7680   27.3590   89.4560 C.ar   65  PHE65      -0.0003
     58  CE2       66.7390   28.4060   90.3780 C.ar   65  PHE65      -0.0003
     59  CZ        65.8940   28.1690   89.2950 C.ar   65  PHE65      -0.0000
     60  N         67.3090   20.7740   92.4000 N.3    68  GLU68      -0.1231
     61  CA        66.4890   20.3410   91.2900 C.3    68  GLU68       0.1699
     62  C         67.1990   20.6590   89.9840 C.2    68  GLU68       0.2592
     63  O         67.1670   19.8610   89.0400 O.2    68  GLU68      -0.2718
     64  CB        65.1580   21.0650   91.3310 C.3    68  GLU68       0.0402
     65  CG        63.9650   20.1700   91.1010 C.3    68  GLU68       0.1161
     66  CD        62.7760   20.9450   90.5720 C.2    68  GLU68       0.3649
     67  OE1       62.3610   21.9360   91.2370 O.co2  68  GLU68      -0.2457
     68  OE2       62.2690   20.5580   89.4840 O.co2  68  GLU68      -0.2457
     69  N         67.8490   21.8230   89.9430 N.am   69  GLY69      -0.1957
     70  CA        68.6110   22.2370   88.7810 C.3    69  GLY69       0.1869
     71  C         69.8090   21.3440   88.5660 C.2    69  GLY69       0.2309
     72  O         70.1360   20.9950   87.4390 O.2    69  GLY69      -0.2863
     73  N         68.3070   18.1200   86.9420 N.3    72  MET72      -0.1245
     74  CA        67.8680   18.3770   85.5820 C.3    72  MET72       0.1570
     75  C         69.0710   18.6230   84.6680 C.2    72  MET72       0.2261
     76  O         69.0690   18.2040   83.5100 O.2    72  MET72      -0.2867
     77  CB        66.8540   19.5290   85.5350 C.3    72  MET72       0.0387
     78  CG        66.1180   19.6690   84.1820 C.3    72  MET72       0.0595
     79  SD        65.1510   21.1970   83.9950 S.3    72  MET72      -0.1393
     80  CE        64.6830   21.1600   82.2540 C.3    72  MET72       0.0692
     81  N         64.0510   17.8600   77.5930 N.3    81  LEU81      -0.1245
     82  CA        64.4510   19.2640   77.5290 C.3    81  LEU81       0.1561
     83  C         65.6440   19.5130   78.4260 C.2    81  LEU81       0.2260
     84  O         65.5910   19.2420   79.6160 O.2    81  LEU81      -0.2867
     85  CB        63.3030   20.1930   77.9220 C.3    81  LEU81       0.0270
     86  CG        63.5710   21.7030   77.8360 C.3    81  LEU81       0.0019
     87  CD1       63.7610   22.1660   76.4000 C.3    81  LEU81       0.0001
     88  CD2       62.4390   22.4700   78.4930 C.3    81  LEU81       0.0001
     89  N         68.3290   21.6300   80.6150 N.3    83  LEU83      -0.1245
     90  CA        68.5340   22.8750   81.3220 C.3    83  LEU83       0.1561
     91  C         69.8520   23.4680   80.8370 C.2    83  LEU83       0.2260
     92  O         70.9030   22.8260   80.9120 O.2    83  LEU83      -0.2867
     93  CB        68.5740   22.6110   82.8240 C.3    83  LEU83       0.0270
     94  CG        68.7120   23.7620   83.8280 C.3    83  LEU83       0.0019
     95  CD1       67.6060   24.8170   83.6720 C.3    83  LEU83       0.0001
     96  CD2       68.7040   23.1710   85.2250 C.3    83  LEU83       0.0001
     97  N         70.8670   28.2030   85.2810 N.3    86  ILE86      -0.1245
     98  CA        70.0390   28.9600   86.2140 C.3    86  ILE86       0.1561
     99  C         70.7250   30.2680   86.5860 C.2    86  ILE86       0.2260
    100  O         71.9430   30.3150   86.7420 O.2    86  ILE86      -0.2867
    101  CB        69.7790   28.1420   87.4990 C.3    86  ILE86       0.0252
    102  CG1       68.7390   27.0620   87.2440 C.3    86  ILE86       0.0019
    103  CG2       69.3160   29.0420   88.6380 C.3    86  ILE86       0.0019
    104  CD1       68.7020   26.0300   88.3370 C.3    86  ILE86       0.0001
    105  N         65.1310   30.3160   85.0980 N.3    96  VAL96      -0.1245
    106  CA        65.4400   29.0780   84.3880 C.3    96  VAL96       0.1561
    107  C         65.7570   29.4470   82.9390 C.2    96  VAL96       0.2260
    108  O         65.0240   30.2240   82.3120 O.2    96  VAL96      -0.2867
    109  CB        64.2540   28.0880   84.4010 C.3    96  VAL96       0.0252
    110  CG1       64.6410   26.7960   83.7400 C.3    96  VAL96       0.0019
    111  CG2       63.8330   27.7880   85.8040 C.3    96  VAL96       0.0019
    112  N         66.5060   27.8830   79.1140 N.3    98  LEU98      -0.1231
    113  CA        66.2030   26.6810   78.3270 C.3    98  LEU98       0.1678
    114  C         66.4340   26.9030   76.8520 C.2    98  LEU98       0.2434
    115  O         66.2520   28.0130   76.3810 O.2    98  LEU98      -0.2733
    116  CB        64.7370   26.3020   78.5250 C.3    98  LEU98       0.0284
    117  CG        64.5020   26.0430   80.0050 C.3    98  LEU98       0.0019
    118  CD1       63.1990   26.6900   80.4330 C.3    98  LEU98       0.0001
    119  CD2       64.5920   24.5520   80.3500 C.3    98  LEU98       0.0001
    120  N         66.7870   25.8360   76.1040 N.am   99  PRO99      -0.2718
    121  CA        66.9850   26.0100   74.6620 C.3    99  PRO99       0.1535
    122  C         65.6700   26.4340   74.0520 C.2    99  PRO99       0.2599
    123  O         64.6160   25.9560   74.4710 O.2    99  PRO99      -0.2715
    124  CB        67.3210   24.5970   74.1740 C.3    99  PRO99       0.0310
    125  CG        67.7470   23.8450   75.3820 C.3    99  PRO99       0.0237
    126  CD        66.9750   24.4340   76.5150 C.3    99  PRO99       0.0939
    127  N         65.7170   27.3420   73.0920 N.am  100  TYR100     -0.1960
    128  CA        64.4890   27.7880   72.4360 C.3   100  TYR100      0.1771
    129  C         63.8970   26.6510   71.6140 C.2   100  TYR100      0.2619
    130  O         64.6030   25.9940   70.8380 O.2   100  TYR100     -0.2715
    131  CB        64.7390   29.0210   71.5540 C.3   100  TYR100      0.0574
    132  CG        63.4760   29.6040   70.9730 C.ar  100  TYR100     -0.0198
    133  CD1       63.0660   29.2910   69.6780 C.ar  100  TYR100     -0.0009
    134  CD2       62.6890   30.4610   71.7170 C.ar  100  TYR100     -0.0009
    135  CE1       61.8990   29.8190   69.1480 C.ar  100  TYR100      0.0417
    136  CE2       61.5340   30.9960   71.2010 C.ar  100  TYR100      0.0417
    137  CZ        61.1430   30.6760   69.9220 C.ar  100  TYR100      0.1957
    138  OH        59.9880   31.2350   69.4340 O.3   100  TYR100     -0.2866
    139  N         62.6010   26.4280   71.8070 N.am  101  MET101     -0.1963
    140  CA        61.8560   25.3870   71.0970 C.3   101  MET101      0.1736
    141  C         60.9800   26.0540   70.0650 C.2   101  MET101      0.2616
    142  O         59.9960   26.7120   70.4240 O.2   101  MET101     -0.2715
    143  CB        60.9900   24.5860   72.0720 C.3   101  MET101      0.0427
    144  CG        61.7610   23.8780   73.1680 C.3   101  MET101      0.0599
    145  SD        62.6770   22.4470   72.5520 S.3   101  MET101     -0.1393
    146  CE        64.3160   23.1210   72.3240 C.3   101  MET101      0.0692
    147  N         61.3360   25.8830   68.7920 N.am  102  LYS102     -0.1963
    148  CA        60.6570   26.5680   67.6910 C.3   102  LYS102      0.1728
    149  C         59.1290   26.4390   67.7190 C.2   102  LYS102      0.2616
    150  O         58.4180   27.4400   67.6680 O.2   102  LYS102     -0.2715
    151  CB        61.2080   26.1100   66.3420 C.3   102  LYS102      0.0311
    152  CG        61.0330   27.1400   65.2430 C.3   102  LYS102      0.0038
    153  CD        61.0170   26.4940   63.8700 C.3   102  LYS102      0.0206
    154  CE        60.7160   27.5000   62.7780 C.3   102  LYS102      0.1093
    155  NZ        60.4030   26.7690   61.5240 N.3   102  LYS102     -0.1314
    156  N         58.6320   25.2140   67.8310 N.am  103  HIS103     -0.1959
    157  CA        57.2080   24.9690   67.6360 C.3   103  HIS103      0.1787
    158  C         56.4180   24.8510   68.9360 C.2   103  HIS103      0.2621
    159  O         55.2820   24.3620   68.9370 O.2   103  HIS103     -0.2715
    160  CB        56.9910   23.7560   66.7210 C.3   103  HIS103      0.0785
    161  CG        57.5220   23.9520   65.3350 C.ar  103  HIS103      0.0821
    162  ND1       56.8970   24.7560   64.4050 N.ar  103  HIS103     -0.2267
    163  CD2       58.6370   23.4750   64.7310 C.ar  103  HIS103      0.1154
    164  CE1       57.5970   24.7550   63.2830 C.ar  103  HIS103      0.1986
    165  NE2       58.6570   23.9840   63.4530 N.ar  103  HIS103     -0.2212
    166  N         57.0240   25.3150   70.0310 N.am  104  GLY104     -0.1940
    167  CA        56.3520   25.3940   71.3240 C.3   104  GLY104      0.2014
    168  C         56.0150   24.0410   71.9280 C.2   104  GLY104      0.2638
    169  O         56.7530   23.0800   71.7560 O.2   104  GLY104     -0.2714
    170  N         54.9020   23.9760   72.6510 N.am  105  ASP105     -0.1971
    171  CA        54.4840   22.7400   73.2860 C.3   105  ASP105      0.1709
    172  C         53.6710   21.9080   72.3150 C.2   105  ASP105      0.2293
    173  O         53.0780   22.4390   71.3810 O.2   105  ASP105     -0.2864
    174  CB        53.6740   23.0150   74.5590 C.3   105  ASP105      0.1436
    175  CG        52.3180   23.6300   74.2640 C.2   105  ASP105      0.3671
    176  OD1       52.2840   24.8060   73.8230 O.co2 105  ASP105     -0.2456
    177  OD2       51.2880   22.9360   74.4610 O.co2 105  ASP105     -0.2456
    178  N         49.4130   22.4710   71.9780 N.3   108  ASN108     -0.1240
    179  CA        49.0820   23.5890   71.0810 C.3   108  ASN108      0.1653
    180  C         49.3850   23.2900   69.6200 C.2   108  ASN108      0.2266
    181  O         48.5820   23.6170   68.7510 O.2   108  ASN108     -0.2867
    182  CB        49.7730   24.8860   71.5090 C.3   108  ASN108      0.1155
    183  CG        48.8230   25.8500   72.1860 C.2   108  ASN108      0.2627
    184  OD1       48.1690   25.5050   73.1710 O.2   108  ASN108     -0.2716
    185  ND2       48.7350   27.0740   71.6540 N.am  108  ASN108     -0.0877
    186  N         46.1870   23.1490   66.7970 N.3   112  ASN112     -0.1240
    187  CA        46.1310   24.1200   65.7180 C.3   112  ASN112      0.1653
    188  C         45.6600   23.4770   64.4230 C.2   112  ASN112      0.2266
    189  O         46.2540   22.5010   63.9720 O.2   112  ASN112     -0.2867
    190  CB        47.5420   24.6830   65.5170 C.3   112  ASN112      0.1155
    191  CG        47.5800   25.9090   64.6110 C.2   112  ASN112      0.2627
    192  OD1       46.6820   26.1370   63.7910 O.2   112  ASN112     -0.2716
    193  ND2       48.6380   26.7070   64.7560 N.am  112  ASN112     -0.0877
    194  N         48.0830   22.9990   61.2280 N.3   115  HIS115     -0.1241
    195  CA        48.9410   21.8190   61.1700 C.3   115  HIS115      0.1621
    196  C         48.1300   20.5610   60.8350 C.2   115  HIS115      0.2264
    197  O         46.9540   20.4620   61.1900 O.2   115  HIS115     -0.2867
    198  CB        49.7270   21.6540   62.4790 C.3   115  HIS115      0.0745
    199  CG        50.6010   22.8300   62.8160 C.ar  115  HIS115      0.0817
    200  ND1       50.7760   23.2860   64.1060 N.ar  115  HIS115     -0.2268
    201  CD2       51.3290   23.6560   62.0260 C.ar  115  HIS115      0.1154
    202  CE1       51.5800   24.3340   64.0960 C.ar  115  HIS115      0.1986
    203  NE2       51.9310   24.5780   62.8470 N.ar  115  HIS115     -0.2212
    204  N         57.7780   19.7290   74.6230 N.3   152  MET152     -0.1245
    205  CA        58.1390   20.7820   73.6780 C.3   152  MET152      0.1570
    206  C         58.4870   20.1980   72.3100 C.2   152  MET152      0.2261
    207  O         58.6590   18.9880   72.1760 O.2   152  MET152     -0.2867
    208  CB        59.2890   21.6270   74.2320 C.3   152  MET152      0.0387
    209  CG        59.0540   22.1560   75.6450 C.3   152  MET152      0.0595
    210  SD        57.4250   22.9220   75.8580 S.3   152  MET152     -0.1393
    211  CE        57.7070   24.4390   74.9540 C.3   152  MET152      0.0692
    212  N         59.4780   17.8270   79.3670 N.3   162  ALA162     -0.1231
    213  CA        59.7480   18.8590   80.3610 C.3   162  ALA162      0.1694
    214  C         58.6450   18.8610   81.4260 C.2   162  ALA162      0.2592
    215  O         57.6460   18.1580   81.2720 O.2   162  ALA162     -0.2718
    216  CB        59.8270   20.2020   79.6770 C.3   162  ALA162      0.0304
    217  N         58.8360   19.6400   82.5010 N.am  163  ASP163     -0.1974
    218  CA        57.8090   19.8780   83.5490 C.3   163  ASP163      0.1709
    219  C         57.6980   21.3750   83.8780 C.2   163  ASP163      0.2293
    220  O         56.8270   22.0960   83.3750 O.2   163  ASP163     -0.2864
    221  CB        58.1260   19.1450   84.8690 C.3   163  ASP163      0.1436
    222  CG        59.2130   18.0720   84.7290 C.2   163  ASP163      0.3671
    223  OD1       60.1470   18.2330   83.9000 O.co2 163  ASP163     -0.2456
    224  OD2       59.1460   17.0720   85.4820 O.co2 163  ASP163     -0.2456
@<TRIPOS>BOND
     1   196   195    1
     2   196   197    2
     3   195   194    1
     4   195   198    1
     5   155   154    1
     6   201   199   ar
     7   201   203   ar
     8   198   199    1
     9   154   153    1
    10   199   200   ar
    11   203   202   ar
    12   164   165   ar
    13   164   162   ar
    14   165   163   ar
    15   192   191    2
    16   153   152    1
    17   189   188    2
    18   202   200   ar
    19   162   161   ar
    20   188   187    1
    21   191   193   am
    22   191   190    1
    23   163   161   ar
    24   152   151    1
    25   161   160    1
    26   190   187    1
    27   187   186    1
    28   151   148    1
    29   160   157    1
    30   157   156    1
    31   157   158    1
    32   150   149    2
    33   148   149    1
    34   148   147    1
    35   149   156   am
    36   181   180    2
    37   147   141   am
    38   158   159    2
    39   158   166   am
    40   135   133   ar
    41   135   137   ar
    42   138   137    1
    43   180   179    1
    44   133   132   ar
    45   137   136   ar
    46   166   167    1
    47   141   142    2
    48   141   140    1
    49   130   129    2
    50   132   131    1
    51   132   134   ar
    52   179   182    1
    53   179   178    1
    54   140   139    1
    55   140   143    1
    56   136   134   ar
    57   167   168    1
    58   173   172    2
    59   182   183    1
    60   131   128    1
    61   129   139   am
    62   129   128    1
    63   185   183   am
    64   169   168    2
    65   168   170   am
    66   143   144    1
    67   207   206    2
    68   183   184    2
    69   206   205    1
    70   172   171    1
    71   146   145    1
    72   128   127    1
    73   145   144    1
    74   170   171    1
    75   127   122   am
    76   171   174    1
    77   205   208    1
    78   205   204    1
    79     7     5    1
    80   176   175   ar
    81   122   123    2
    82   122   121    1
    83   124   121    1
    84   124   125    1
    85     8     6    1
    86   208   209    1
    87   175   177   ar
    88   175   174    1
    89     6     5    1
    90   121   120    1
    91     5     2    1
    92     2     1    1
    93     2     3    1
    94   211   210    1
    95     4     3    2
    96   125   126    1
    97   209   210    1
    98    27    28    1
    99   120   126    1
   100   120   114   am
   101    31    28    1
   102   115   114    2
   103    87    86    1
   104    28    29    1
   105   114   113    1
   106    82    81    1
   107    82    85    1
   108    82    83    1
   109    86    85    1
   110    86    88    1
   111    23    22    2
   112    29    30    2
   113   113   116    1
   114   113   112    1
   115    83    84    2
   116    25    24    1
   117   116   117    1
   118    22    21    1
   119    17    15   ar
   120    17    19   ar
   121    24    21    1
   122    24    26    1
   123    15    14   ar
   124   212   213    1
   125    21    20    1
   126    19    18   ar
   127   216   213    1
   128   117   119    1
   129   117   118    1
   130    14    13    1
   131    14    16   ar
   132   213   214    1
   133     9    10    1
   134    13    10    1
   135    89    90    1
   136    91    92    2
   137    91    90    1
   138    18    16   ar
   139   215   214    2
   140    10    11    1
   141    90    93    1
   142   214   217   am
   143    32    33    1
   144    11    12    2
   145    80    79    1
   146   108   107    2
   147   217   218    1
   148    33    36    1
   149    33    34    1
   150    93    94    1
   151    36    37    1
   152   107   106    1
   153   220   219    2
   154    38    37    1
   155    38    39    1
   156    76    75    2
   157   218   219    1
   158   218   221    1
   159    95    94    1
   160   110   109    1
   161    94    96    1
   162   223   222   ar
   163    79    78    1
   164    34    35    2
   165    78    77    1
   166   106   109    1
   167   106   105    1
   168   109   111    1
   169    40    39    1
   170    75    74    1
   171   222   221    1
   172   222   224   ar
   173    97    98    1
   174    77    74    1
   175    74    73    1
   176    98    99    1
   177    98   101    1
   178    99   100    2
   179   102   101    1
   180   102   104    1
   181    72    71    2
   182   101   103    1
   183    48    46    1
   184    41    42    1
   185    71    70    1
   186    70    69    1
   187    42    45    1
   188    42    43    1
   189    63    62    2
   190    46    47    1
   191    46    45    1
   192    59    57   ar
   193    59    58   ar
   194    57    55   ar
   195    68    66   ar
   196    69    62   am
   197    62    61    1
   198    43    44    2
   199    58    56   ar
   200    66    65    1
   201    66    67   ar
   202    55    54   ar
   203    65    64    1
   204    61    64    1
   205    61    60    1
   206    52    51    2
   207    56    54   ar
   208    54    53    1
   209    51    50    1
   210    53    50    1
   211    50    49    1
