@<TRIPOS>MOLECULE
tmp/2rfqA00.pdb
 79 76 0 0 0
SMALL
GASTEIGER

@<TRIPOS>ATOM
      1  N          6.5620    9.8280   65.1030 N.3   243  ALA243     -0.1231
      2  CA         5.7990   10.9100   64.4480 C.3   243  ALA243      0.1694
      3  C          4.7120   10.2690   63.5840 C.2   243  ALA243      0.2592
      4  O          3.5350   10.6620   63.6440 O.2   243  ALA243     -0.2718
      5  CB         6.7290   11.8130   63.5850 C.3   243  ALA243      0.0304
      6  N          5.1050    9.2460   62.8300 N.am  244  HIS244     -0.1976
      7  CA         4.1760    8.5460   61.9340 C.3   244  HIS244      0.1656
      8  C          3.0550    7.8740   62.6950 C.2   244  HIS244      0.2291
      9  O          1.8710    8.0670   62.3840 O.2   244  HIS244     -0.2864
     10  CB         4.9410    7.5080   61.0970 C.3   244  HIS244      0.0771
     11  CG         4.0610    6.6730   60.2140 C.ar  244  HIS244      0.0820
     12  ND1        3.4890    7.1620   59.0560 N.ar  244  HIS244     -0.2267
     13  CD2        3.6710    5.3780   60.3120 C.ar  244  HIS244      0.1154
     14  CE1        2.7910    6.1980   58.4750 C.ar  244  HIS244      0.1986
     15  NE2        2.8940    5.1020   59.2150 N.ar  244  HIS244     -0.2212
     16  N          0.6100   10.5000   64.2620 N.3   247  HIS247     -0.1226
     17  CA        -0.2630   11.1060   63.2640 C.3   247  HIS247      0.1752
     18  C         -1.2830   10.0960   62.7300 C.2   247  HIS247      0.2595
     19  O         -2.4870   10.3840   62.6780 O.2   247  HIS247     -0.2718
     20  CB         0.5460   11.6970   62.1240 C.3   247  HIS247      0.0759
     21  CG        -0.2960   12.3810   61.1020 C.ar  247  HIS247      0.0818
     22  ND1       -0.7750   13.6620   61.2790 N.ar  247  HIS247     -0.2268
     23  CD2       -0.7830   11.9540   59.9100 C.ar  247  HIS247      0.1154
     24  CE1       -1.4970   14.0060   60.2260 C.ar  247  HIS247      0.1986
     25  NE2       -1.5260   12.9860   59.3860 N.ar  247  HIS247     -0.2212
     26  N         -0.8050    8.9110   62.3560 N.am  248  GLN248     -0.1979
     27  CA        -1.6870    7.8740   61.8250 C.3   248  GLN248      0.1601
     28  C         -2.6820    7.3710   62.8610 C.2   248  GLN248      0.2287
     29  O         -3.8430    7.1310   62.5290 O.2   248  GLN248     -0.2864
     30  CB        -0.8840    6.7160   61.2360 C.3   248  GLN248      0.0394
     31  CG        -0.0770    7.1010   60.0080 C.3   248  GLN248      0.0908
     32  CD        -0.9330    7.7080   58.9010 C.2   248  GLN248      0.2608
     33  OE1       -2.1000    7.3320   58.7290 O.2   248  GLN248     -0.2717
     34  NE2       -0.3640    8.6640   58.1580 N.am  248  GLN248     -0.0878
     35  N          2.7770    6.8570   54.5590 N.3   332  SER332     -0.1217
     36  CA         2.0970    8.0920   54.9220 C.3   332  SER332      0.1889
     37  C          1.4830    8.8000   53.7060 C.2   332  SER332      0.2288
     38  O          0.4190    9.4080   53.8070 O.2   332  SER332     -0.2866
     39  CB         3.0620    9.0010   55.6610 C.3   332  SER332      0.2089
     40  OG         2.3850   10.1470   56.1020 O.3   332  SER332     -0.2183
     41  N          0.0460   13.3260   52.6460 N.3   335  THR335     -0.1203
     42  CA         0.1820   14.1780   53.8150 C.3   335  THR335      0.1994
     43  C          1.6540   14.4350   54.1880 C.2   335  THR335      0.2617
     44  O          2.0010   15.5510   54.6200 O.2   335  THR335     -0.2717
     45  CB        -0.6390   13.6210   55.0150 C.3   335  THR335      0.1784
     46  OG1       -0.7350   14.6420   56.0170 O.3   335  THR335     -0.2211
     47  CG2       -0.0400   12.3300   55.5900 C.3   335  THR335      0.0376
     48  N          2.5030   13.4250   53.9590 N.am  336  ALA336     -0.1979
     49  CA         3.9220   13.4930   54.3450 C.3   336  ALA336      0.1597
     50  C          4.7400   14.4120   53.4270 C.2   336  ALA336      0.2287
     51  O          5.8850   14.7430   53.7410 O.2   336  ALA336     -0.2864
     52  CB         4.5510   12.0870   54.4100 C.3   336  ALA336      0.0319
     53  N          4.2630   17.5510   52.8390 N.3   338  ALA338     -0.1245
     54  CA         4.1910   18.9500   53.2380 C.3   338  ALA338      0.1562
     55  C          5.5290   19.4570   53.7870 C.2   338  ALA338      0.2260
     56  O          6.0860   18.8560   54.7020 O.2   338  ALA338     -0.2867
     57  CB         3.1130   19.0970   54.2650 C.3   338  ALA338      0.0290
     58  N          7.1200   19.5960   57.8750 N.3   341  THR341     -0.1204
     59  CA         6.5900   18.5010   58.6980 C.3   341  THR341      0.1979
     60  C          7.6970   17.4700   59.0250 C.2   341  THR341      0.2460
     61  O          8.6840   17.3380   58.2780 O.2   341  THR341     -0.2732
     62  CB         5.3670   17.8370   58.0640 C.3   341  THR341      0.1783
     63  OG1        5.7280   17.2500   56.8110 O.3   341  THR341     -0.2211
     64  CG2        4.2160   18.8830   57.8840 C.3   341  THR341      0.0376
     65  N          7.5810   16.7940   60.1860 N.am  342  PRO342     -0.2717
     66  CA         8.7080   15.9670   60.6350 C.3   342  PRO342      0.1535
     67  C          9.1150   14.7700   59.7620 C.2   342  PRO342      0.2598
     68  O         10.3130   14.5360   59.5800 O.2   342  PRO342     -0.2715
     69  CB         8.2790   15.5010   62.0430 C.3   342  PRO342      0.0310
     70  CG         7.2400   16.4740   62.4880 C.3   342  PRO342      0.0237
     71  CD         6.5250   16.8940   61.2110 C.3   342  PRO342      0.0939
     72  N          8.1630   14.0280   59.2060 N.am  343  LEU343     -0.1978
     73  CA         8.5540   12.7430   58.6210 C.3   343  LEU343      0.1596
     74  C          9.4160   12.9240   57.3610 C.2   343  LEU343      0.2287
     75  O         10.4430   12.1990   57.1930 O.2   343  LEU343     -0.2864
     76  CB         7.3390   11.8660   58.3770 C.3   343  LEU343      0.0297
     77  CG         7.5400   10.5050   57.7300 C.3   343  LEU343      0.0022
     78  CD1        8.4500    9.5910   58.5740 C.3   343  LEU343      0.0001
     79  CD2        6.1590    9.8320   57.5480 C.3   343  LEU343      0.0001
@<TRIPOS>BOND
     1    41    42    1
     2    53    54    1
     3    54    55    1
     4    54    57    1
     5    50    51    2
     6    50    49    1
     7    37    38    2
     8    37    36    1
     9    55    56    2
    10    42    43    1
    11    42    45    1
    12    48    43   am
    13    48    49    1
    14    43    44    2
    15    49    52    1
    16    35    36    1
    17    36    39    1
    18    45    47    1
    19    45    46    1
    20    39    40    1
    21    63    62    1
    22    75    74    2
    23    74    73    1
    24    79    77    1
    25    77    76    1
    26    77    78    1
    27    58    59    1
    28    64    62    1
    29    62    59    1
    30    34    32   am
    31    61    60    2
    32    76    73    1
    33    14    12   ar
    34    14    15   ar
    35    73    72    1
    36    59    60    1
    37    33    32    2
    38    32    31    1
    39    60    65   am
    40    12    11   ar
    41    72    67   am
    42    15    13   ar
    43    25    23   ar
    44    25    24   ar
    45    68    67    2
    46    67    66    1
    47    23    21   ar
    48    31    30    1
    49    65    66    1
    50    65    71    1
    51    11    13   ar
    52    11    10    1
    53    24    22   ar
    54    66    69    1
    55    10     7    1
    56    21    22   ar
    57    21    20    1
    58    71    70    1
    59    30    27    1
    60    27    26    1
    61    27    28    1
    62     7     8    1
    63     7     6    1
    64    69    70    1
    65    20    17    1
    66    26    18   am
    67     9     8    2
    68    29    28    2
    69    19    18    2
    70    18    17    1
    71     6     3   am
    72    17    16    1
    73     3     4    2
    74     3     2    1
    75     5     2    1
    76     2     1    1
