@<TRIPOS>MOLECULE
tmp/2rfsA00.pdb
 174 167 0 0 0
SMALL
GASTEIGER

@<TRIPOS>ATOM
      1  N         19.6480    4.3430   54.4750 N.3    18  ILE18      -0.1231
      2  CA        19.6530    5.1570   55.6880 C.3    18  ILE18       0.1696
      3  C         18.3460    5.9540   55.7910 C.2    18  ILE18       0.2631
      4  O         17.7290    6.0020   56.8520 O.2    18  ILE18      -0.2714
      5  CB        20.8970    6.0810   55.7640 C.3    18  ILE18       0.0266
      6  CG1       22.1660    5.2440   55.9550 C.3    18  ILE18       0.0019
      7  CG2       20.7540    7.0890   56.9000 C.3    18  ILE18       0.0020
      8  CD1       23.4580    6.0090   55.7960 C.3    18  ILE18       0.0001
      9  N         17.9170    6.5600   54.6860 N.am   19  GLY19      -0.1732
     10  CA        16.6650    7.3150   54.6760 C.2    19  GLY19       0.1340
     11  C         16.1730    7.7210   53.3030 C.2    19  GLY19       0.2521
     12  O         16.9620    7.9230   52.3790 O.2    19  GLY19      -0.2816
     13  N         19.2810    8.3690   50.6310 N.3    26  VAL26      -0.1245
     14  CA        20.6300    8.2530   51.1970 C.3    26  VAL26       0.1561
     15  C         20.9490    6.8120   51.6310 C.2    26  VAL26       0.2260
     16  O         20.1180    6.1410   52.2440 O.2    26  VAL26      -0.2867
     17  CB        20.8840    9.3060   52.3340 C.3    26  VAL26       0.0252
     18  CG1       19.8770    9.1650   53.4590 C.3    26  VAL26       0.0019
     19  CG2       22.3200    9.2300   52.8690 C.3    26  VAL26       0.0019
     20  N         24.0750    3.7600   52.9960 N.3    28  HIS28      -0.1241
     21  CA        25.3960    3.4000   53.4930 C.3    28  HIS28       0.1621
     22  C         26.3440    3.3090   52.3010 C.2    28  HIS28       0.2264
     23  O         25.9590    2.8570   51.2210 O.2    28  HIS28      -0.2867
     24  CB        25.3640    2.0530   54.2160 C.3    28  HIS28       0.0745
     25  CG        24.6700    2.0860   55.5440 C.ar   28  HIS28       0.0817
     26  ND1       25.2880    2.5200   56.6960 N.ar   28  HIS28      -0.2268
     27  CD2       23.4180    1.7170   55.9050 C.ar   28  HIS28       0.1154
     28  CE1       24.4430    2.4310   57.7070 C.ar   28  HIS28       0.1986
     29  NE2       23.3000    1.9470   57.2540 N.ar   28  HIS28      -0.2212
     30  N         27.8930    8.2050   54.1440 N.3    36  ALA36      -0.1245
     31  CA        26.5110    8.2520   53.6990 C.3    36  ALA36       0.1562
     32  C         26.4730    8.8980   52.3200 C.2    36  ALA36       0.2260
     33  O         27.1120    9.9260   52.0920 O.2    36  ALA36      -0.2867
     34  CB        25.6560    9.0330   54.6850 C.3    36  ALA36       0.0290
     35  N         24.1450   10.4490   49.3160 N.3    38  LYS38      -0.1245
     36  CA        22.8510   10.9600   48.8850 C.3    38  LYS38       0.1561
     37  C         22.6870   10.8750   47.3690 C.2    38  LYS38       0.2260
     38  O         23.4630   11.4630   46.6060 O.2    38  LYS38      -0.2867
     39  CB        22.6000   12.3950   49.3710 C.3    38  LYS38       0.0271
     40  CG        21.1670   12.8520   49.1080 C.3    38  LYS38       0.0035
     41  CD        21.0080   14.3620   49.1430 C.3    38  LYS38       0.0206
     42  CE        19.7090   14.7960   48.4650 C.3    38  LYS38       0.1093
     43  NZ        18.4990   14.0540   48.9500 N.3    38  LYS38      -0.1314
     44  N         28.1580   19.6610   59.6130 N.3    64  LEU64      -0.1245
     45  CA        28.3520   18.5080   58.7370 C.3    64  LEU64       0.1561
     46  C         29.2220   18.9050   57.5570 C.2    64  LEU64       0.2260
     47  O         28.9260   19.8720   56.8570 O.2    64  LEU64      -0.2867
     48  CB        27.0160   17.9820   58.2170 C.3    64  LEU64       0.0270
     49  CG        27.0570   16.7150   57.3550 C.3    64  LEU64       0.0019
     50  CD1       26.9560   15.4670   58.2210 C.3    64  LEU64       0.0001
     51  CD2       25.9370   16.7450   56.3410 C.3    64  LEU64       0.0001
     52  N         28.7500   12.0180   52.1290 N.3    77  LEU77      -0.1231
     53  CA        28.7130   12.6580   53.4430 C.3    77  LEU77       0.1678
     54  C         29.2290   11.6970   54.5040 C.2    77  LEU77       0.2434
     55  O         29.1080   10.4860   54.3410 O.2    77  LEU77      -0.2733
     56  CB        27.2760   13.0690   53.7840 C.3    77  LEU77       0.0284
     57  CG        26.4790   13.8620   52.7420 C.3    77  LEU77       0.0019
     58  CD1       24.9940   13.8130   53.0450 C.3    77  LEU77       0.0001
     59  CD2       26.9730   15.2990   52.6360 C.3    77  LEU77       0.0001
     60  N         29.8070   12.2310   55.5990 N.am   78  PRO78      -0.2718
     61  CA        30.2700   11.3620   56.6840 C.3    78  PRO78       0.1535
     62  C         29.1450   10.5280   57.2840 C.2    78  PRO78       0.2599
     63  O         27.9790   10.9320   57.2580 O.2    78  PRO78      -0.2715
     64  CB        30.8200   12.3460   57.7230 C.3    78  PRO78       0.0310
     65  CG        30.2570   13.6700   57.3570 C.3    78  PRO78       0.0237
     66  CD        30.0920   13.6500   55.8770 C.3    78  PRO78       0.0939
     67  N         29.4990    9.3540   57.7960 N.am   79  TYR79      -0.1960
     68  CA        28.5400    8.5170   58.4960 C.3    79  TYR79       0.1771
     69  C         28.3320    9.0510   59.9100 C.2    79  TYR79       0.2619
     70  O         29.2950    9.4060   60.5950 O.2    79  TYR79      -0.2715
     71  CB        29.0150    7.0620   58.5290 C.3    79  TYR79       0.0574
     72  CG        28.0730    6.1310   59.2410 C.ar   79  TYR79      -0.0198
     73  CD1       28.4670    5.4670   60.3950 C.ar   79  TYR79      -0.0009
     74  CD2       26.7800    5.9210   58.7660 C.ar   79  TYR79      -0.0009
     75  CE1       27.6000    4.6090   61.0580 C.ar   79  TYR79       0.0417
     76  CE2       25.9020    5.0660   59.4240 C.ar   79  TYR79       0.0417
     77  CZ        26.3180    4.4130   60.5620 C.ar   79  TYR79       0.1957
     78  OH        25.4490    3.5670   61.2130 O.3    79  TYR79      -0.2866
     79  N         27.0670    9.1080   60.3250 N.am   80  MET80      -0.1963
     80  CA        26.6850    9.6080   61.6390 C.3    80  MET80       0.1736
     81  C         26.0300    8.4900   62.4300 C.2    80  MET80       0.2616
     82  O         24.8620    8.1700   62.2190 O.2    80  MET80      -0.2715
     83  CB        25.7460   10.8140   61.5040 C.3    80  MET80       0.0427
     84  CG        26.4120   12.0290   60.8670 C.3    80  MET80       0.0599
     85  SD        27.5920   12.7870   61.9950 S.3    80  MET80      -0.1393
     86  CE        28.8590   13.3290   60.8630 C.3    80  MET80       0.0692
     87  N         26.8000    7.9060   63.3420 N.am   81  LYS81      -0.1963
     88  CA        26.4040    6.7020   64.0740 C.3    81  LYS81       0.1728
     89  C         25.0520    6.7980   64.7790 C.2    81  LYS81       0.2616
     90  O         24.2240    5.8900   64.6660 O.2    81  LYS81      -0.2715
     91  CB        27.5040    6.3190   65.0700 C.3    81  LYS81       0.0311
     92  CG        27.2860    5.0200   65.8330 C.3    81  LYS81       0.0038
     93  CD        28.5330    4.6980   66.6350 C.3    81  LYS81       0.0206
     94  CE        28.2740    3.6760   67.7240 C.3    81  LYS81       0.1093
     95  NZ        29.3890    3.7030   68.7210 N.3    81  LYS81      -0.1314
     96  N         24.8160    7.8960   65.4910 N.am   82  HIS82      -0.1959
     97  CA        23.6310    7.9790   66.3410 C.3    82  HIS82       0.1787
     98  C         22.4390    8.6880   65.7100 C.2    82  HIS82       0.2621
     99  O         21.4220    8.8980   66.3650 O.2    82  HIS82      -0.2715
    100  CB        23.9950    8.5480   67.7140 C.3    82  HIS82       0.0785
    101  CG        24.9690    7.6930   68.4580 C.ar   82  HIS82       0.0821
    102  ND1       24.5960    6.5310   69.0990 N.ar   82  HIS82      -0.2267
    103  CD2       26.3080    7.8060   68.6280 C.ar   82  HIS82       0.1154
    104  CE1       25.6600    5.9770   69.6540 C.ar   82  HIS82       0.1986
    105  NE2       26.7110    6.7290   69.3820 N.ar   82  HIS82      -0.2212
    106  N         22.5580    9.0150   64.4260 N.am   83  GLY83      -0.1940
    107  CA        21.4420    9.5590   63.6660 C.3    83  GLY83       0.2014
    108  C         21.0890   10.9670   64.0930 C.2    83  GLY83       0.2638
    109  O         21.9520   11.7150   64.5480 O.2    83  GLY83      -0.2714
    110  N         19.8160   11.3240   63.9470 N.am   84  ASP84      -0.1971
    111  CA        19.3760   12.6970   64.1750 C.3    84  ASP84       0.1709
    112  C         19.1460   12.9800   65.6460 C.2    84  ASP84       0.2293
    113  O         18.8040   12.0810   66.4210 O.2    84  ASP84      -0.2864
    114  CB        18.1260   13.0350   63.3580 C.3    84  ASP84       0.1436
    115  CG        16.9160   12.2470   63.7950 C.2    84  ASP84       0.3671
    116  OD1       16.8700   11.0380   63.4930 O.co2  84  ASP84      -0.2456
    117  OD2       16.0130   12.8340   64.4390 O.co2  84  ASP84      -0.2456
    118  N         15.6140   17.3460   64.1070 N.3   128  ARG128     -0.1231
    119  CA        15.6330   16.2950   63.0760 C.3   128  ARG128      0.1694
    120  C         16.7640   16.4900   62.0670 C.2   128  ARG128      0.2592
    121  O         17.1890   15.5410   61.4090 O.2   128  ARG128     -0.2718
    122  CB        14.2850   16.2150   62.3390 C.3   128  ARG128      0.0321
    123  CG        13.9180   17.4930   61.5770 C.3   128  ARG128      0.0489
    124  CD        12.7170   17.3500   60.6530 C.3   128  ARG128      0.2205
    125  NE        12.4320   18.6500   60.0440 N.pl3 128  ARG128     -0.0865
    126  CZ        11.6720   19.5940   60.5990 C.cat 128  ARG128      0.5346
    127  NH1       11.4990   20.7460   59.9820 N.pl3 128  ARG128      0.1354
    128  NH2       11.0670   19.3830   61.7610 N.pl3 128  ARG128      0.1354
    129  N         17.2630   17.7210   61.9740 N.am  129  ASN129     -0.1974
    130  CA        18.2590   18.0740   60.9650 C.3   129  ASN129      0.1688
    131  C         19.6600   18.2530   61.5300 C.2   129  ASN129      0.2292
    132  O         20.5520   18.7720   60.8620 O.2   129  ASN129     -0.2864
    133  CB        17.7930   19.2990   60.1680 C.3   129  ASN129      0.1181
    134  CG        16.7040   18.9540   59.1630 C.2   129  ASN129      0.2629
    135  OD1       16.6280   17.8220   58.6900 O.2   129  ASN129     -0.2716
    136  ND2       15.8700   19.9300   58.8210 N.am  129  ASN129     -0.0877
    137  N         22.7090   15.9540   63.3530 N.3   131  MET131     -0.1245
    138  CA        23.1730   14.5700   63.4190 C.3   131  MET131      0.1570
    139  C         24.2300   14.3840   64.5130 C.2   131  MET131      0.2261
    140  O         24.9410   15.3230   64.8540 O.2   131  MET131     -0.2867
    141  CB        23.7630   14.1790   62.0660 C.3   131  MET131      0.0387
    142  CG        22.9590   13.1620   61.2750 C.3   131  MET131      0.0595
    143  SD        21.2450   13.5910   61.0500 S.3   131  MET131     -0.1393
    144  CE        20.5330   12.0070   60.7510 C.3   131  MET131      0.0692
    145  N         23.1940   19.8070   60.0880 N.3   141  ALA141     -0.1231
    146  CA        23.1560   19.1220   58.7970 C.3   141  ALA141      0.1694
    147  C         21.9420   19.5070   57.9380 C.2   141  ALA141      0.2592
    148  O         21.2780   20.5200   58.1920 O.2   141  ALA141     -0.2718
    149  CB        23.2210   17.5930   59.0070 C.3   141  ALA141      0.0304
    150  N         21.6820   18.6870   56.9140 N.am  142  ASP142     -0.1974
    151  CA        20.6240   18.9000   55.9250 C.3   142  ASP142      0.1709
    152  C         20.5640   20.3080   55.3230 C.2   142  ASP142      0.2293
    153  O         19.5030   20.9410   55.2820 O.2   142  ASP142     -0.2864
    154  CB        19.2600   18.4770   56.4750 C.3   142  ASP142      0.1436
    155  CG        18.2460   18.2370   55.3760 C.2   142  ASP142      0.3671
    156  OD1       18.5730   17.4990   54.4270 O.co2 142  ASP142     -0.2456
    157  OD2       17.1310   18.7910   55.4550 O.co2 142  ASP142     -0.2456
    158  N         23.0330   18.5370   50.4630 N.3   146  ALA146     -0.1245
    159  CA        22.4910   17.5090   51.3400 C.3   146  ALA146      0.1562
    160  C         21.0120   17.7350   51.6410 C.2   146  ALA146      0.2260
    161  O         20.3510   16.8480   52.1850 O.2   146  ALA146     -0.2867
    162  CB        23.2900   17.4640   52.6350 C.3   146  ALA146      0.0290
    163  N         12.6960   14.6070   54.8140 N.3   150  TYR150     -0.1241
    164  CA        12.7110   13.1980   55.2290 C.3   150  TYR150      0.1605
    165  C         11.5590   12.8120   56.1520 C.2   150  TYR150      0.2264
    166  O         11.0930   11.6660   56.1320 O.2   150  TYR150     -0.2867
    167  CB        14.0570   12.8460   55.8710 C.3   150  TYR150      0.0534
    168  CG        15.2250   13.0780   54.9400 C.ar  150  TYR150     -0.0201
    169  CD1       15.6410   12.0850   54.0520 C.ar  150  TYR150     -0.0009
    170  CD2       15.8990   14.2980   54.9280 C.ar  150  TYR150     -0.0009
    171  CE1       16.7010   12.2980   53.1830 C.ar  150  TYR150      0.0417
    172  CE2       16.9630   14.5190   54.0680 C.ar  150  TYR150      0.0417
    173  CZ        17.3580   13.5160   53.1960 C.ar  150  TYR150      0.1957
    174  OH        18.4080   13.7350   52.3340 O.3   150  TYR150     -0.2866
@<TRIPOS>BOND
     1    38    37    2
     2    37    36    1
     3    42    43    1
     4    42    41    1
     5    36    35    1
     6    36    39    1
     7    40    41    1
     8    40    39    1
     9   158   159    1
    10    13    14    1
    11    14    15    1
    12    14    17    1
    13    23    22    2
    14   159   160    1
    15   159   162    1
    16    15    16    2
    17   160   161    2
    18    33    32    2
    19    52    53    1
    20    22    21    1
    21    32    31    1
    22   174   173    1
    23    17    19    1
    24    17    18    1
    25    12    11    2
    26    59    57    1
    27    57    58    1
    28    57    56    1
    29    20    21    1
    30   171   173   ar
    31   171   169   ar
    32   173   172   ar
    33    11    10    1
    34    53    56    1
    35    53    54    1
    36    21    24    1
    37    31    30    1
    38    31    34    1
    39   169   168   ar
    40   172   170   ar
    41    24    25    1
    42    55    54    2
    43   156   155   ar
    44     1     2    1
    45    54    60   am
    46    10     9    2
    47     9     3    1
    48   163   164    1
    49   170   168   ar
    50   168   167    1
    51   164   167    1
    52   164   165    1
    53   153   152    2
    54   152   151    1
    55   155   157   ar
    56   155   154    1
    57    25    27   ar
    58    25    26   ar
    59    60    66    1
    60    60    61    1
    61     2     5    1
    62     2     3    1
    63     5     6    1
    64     5     7    1
    65     3     4    2
    66     8     6    1
    67    66    65    1
    68    27    29   ar
    69   151   154    1
    70   151   150    1
    71   166   165    2
    72    51    49    1
    73    61    62    1
    74    61    64    1
    75    26    28   ar
    76    47    46    2
    77   150   147   am
    78    29    28   ar
    79    63    62    2
    80    62    67   am
    81    49    48    1
    82    49    50    1
    83    65    64    1
    84    46    45    1
    85    67    68    1
    86   147   148    2
    87   147   146    1
    88    48    45    1
    89    68    71    1
    90    68    69    1
    91    71    72    1
    92   135   134    2
    93    45    44    1
    94    74    72   ar
    95    74    76   ar
    96   146   149    1
    97   146   145    1
    98   136   134   am
    99   134   133    1
   100    72    73   ar
   101    76    77   ar
   102    69    79   am
   103    69    70    2
   104   127   126    1
   105   125   126    2
   106   125   124    1
   107   133   130    1
   108    79    80    1
   109    73    75   ar
   110    77    75   ar
   111    77    78    1
   112   126   128    1
   113   124   123    1
   114   144   143    1
   115   132   131    2
   116    86    85    1
   117    84    83    1
   118    84    85    1
   119   130   131    1
   120   130   129    1
   121   143   142    1
   122   142   141    1
   123   121   120    2
   124    83    80    1
   125   123   122    1
   126    80    81    1
   127   129   120   am
   128   141   138    1
   129   120   119    1
   130    82    81    2
   131   122   119    1
   132    81    87   am
   133   119   118    1
   134    87    88    1
   135   137   138    1
   136   114   115    1
   137   114   111    1
   138   138   139    1
   139   116   115   ar
   140   107   108    1
   141   107   106    1
   142   115   117   ar
   143   110   108   am
   144   110   111    1
   145    88    89    1
   146    88    91    1
   147   108   109    2
   148   111   112    1
   149   106    98   am
   150   139   140    2
   151    90    89    2
   152    89    96   am
   153    91    92    1
   154    96    97    1
   155   112   113    2
   156    98    97    1
   157    98    99    2
   158    92    93    1
   159    97   100    1
   160    93    94    1
   161   100   101    1
   162    94    95    1
   163   101   103   ar
   164   101   102   ar
   165   103   105   ar
   166   102   104   ar
   167   105   104   ar
