@<TRIPOS>MOLECULE
tmp/2rfyD00.pdb
 176 166 0 0 0
SMALL
GASTEIGER

@<TRIPOS>ATOM
      1  N         -8.4450   -4.5580   12.7810 N.3   174  GLN174     -0.1245
      2  CA        -8.1430   -5.9820   12.8490 C.3   174  GLN174      0.1566
      3  C         -9.3940   -6.8020   13.2220 C.2   174  GLN174      0.2260
      4  O         -9.6520   -7.8100   12.5720 O.2   174  GLN174     -0.2867
      5  CB        -7.0810   -6.3690   13.8810 C.3   174  GLN174      0.0367
      6  CG        -5.6690   -5.9160   13.5970 C.3   174  GLN174      0.0905
      7  CD        -5.1980   -6.1440   12.1750 C.2   174  GLN174      0.2608
      8  OE1       -5.1680   -7.2660   11.6780 O.2   174  GLN174     -0.2717
      9  NE2       -4.8180   -5.0450   11.5220 N.am  174  GLN174     -0.0878
     10  N         -9.8670    2.5020   11.8180 N.3   211  GLU211     -0.1245
     11  CA        -8.6610    2.7130   12.6040 C.3   211  GLU211      0.1567
     12  C         -7.6990    3.5720   11.7900 C.2   211  GLU211      0.2260
     13  O         -7.2130    3.1510   10.7250 O.2   211  GLU211     -0.2867
     14  CB        -8.0220    1.3800   12.9950 C.3   211  GLU211      0.0388
     15  CG        -6.7040    1.4550   13.7390 C.3   211  GLU211      0.1160
     16  CD        -5.9780    0.1240   13.8460 C.2   211  GLU211      0.3649
     17  OE1       -6.5500   -0.9320   13.5220 O.co2 211  GLU211     -0.2457
     18  OE2       -4.7960    0.1110   14.2570 O.co2 211  GLU211     -0.2457
     19  N         -4.2140    4.5630   12.0100 N.3   213  ASP213     -0.1239
     20  CA        -2.9350    4.4620   12.7220 C.3   213  ASP213      0.1674
     21  C         -2.0860    5.6970   12.4470 C.2   213  ASP213      0.2266
     22  O         -1.3350    5.7750   11.4630 O.2   213  ASP213     -0.2867
     23  CB        -2.2430    3.1390   12.3310 C.3   213  ASP213      0.1410
     24  CG        -3.1060    1.9730   12.8200 C.2   213  ASP213      0.3668
     25  OD1       -3.5050    1.9950   13.9950 O.co2 213  ASP213     -0.2456
     26  OD2       -3.4130    1.0370   12.0640 O.co2 213  ASP213     -0.2456
     27  N          2.4980    4.1680   14.0880 N.3   216  GLU216     -0.1245
     28  CA         2.9680    2.8870   14.6510 C.3   216  GLU216      0.1567
     29  C          4.4780    2.9790   14.5520 C.2   216  GLU216      0.2260
     30  O          4.9920    3.4090   13.5120 O.2   216  GLU216     -0.2867
     31  CB         2.3200    1.7180   13.9360 C.3   216  GLU216      0.0388
     32  CG         0.7870    1.7270   13.9300 C.3   216  GLU216      0.1160
     33  CD         0.1870    0.5180   13.2570 C.2   216  GLU216      0.3649
     34  OE1        0.0800   -0.5140   13.9700 O.co2 216  GLU216     -0.2457
     35  OE2       -0.1630    0.5710   12.0570 O.co2 216  GLU216     -0.2457
     36  N         -0.8370    4.9140    8.7000 N.3   225  THR225     -0.1218
     37  CA        -1.6860    3.9590    8.0140 C.3   225  THR225      0.1862
     38  C         -3.1490    4.0570    8.4120 C.2   225  THR225      0.2287
     39  O         -3.5890    3.5130    9.4200 O.2   225  THR225     -0.2866
     40  CB        -1.1570    2.5320    8.2770 C.3   225  THR225      0.1770
     41  OG1        0.2840    2.5980    8.1800 O.3   225  THR225     -0.2211
     42  CG2       -1.6040    1.5060    7.2650 C.3   225  THR225      0.0375
     43  N         -6.9770    2.8820    8.0480 N.3   227  HIS227     -0.1241
     44  CA        -7.7380    1.7090    7.6180 C.3   227  HIS227      0.1621
     45  C         -9.2540    1.9840    7.6920 C.2   227  HIS227      0.2264
     46  O         -9.6400    2.5780    8.6920 O.2   227  HIS227     -0.2867
     47  CB        -7.4950    0.4540    8.4460 C.3   227  HIS227      0.0745
     48  CG        -6.1050    0.1210    8.8930 C.ar  227  HIS227      0.0817
     49  ND1       -5.5810   -1.1470    8.7200 N.ar  227  HIS227     -0.2268
     50  CD2       -5.1350    0.8330    9.5090 C.ar  227  HIS227      0.1154
     51  CE1       -4.3490   -1.1840    9.2040 C.ar  227  HIS227      0.1986
     52  NE2       -4.0460    0.0080    9.6920 N.ar  227  HIS227     -0.2212
     53  N         -5.7480  -10.1980   12.2210 N.3   245  THR245     -0.1218
     54  CA        -4.6090  -10.9830   12.6410 C.3   245  THR245      0.1862
     55  C         -5.0390  -12.2210   13.4080 C.2   245  THR245      0.2287
     56  O         -4.3640  -13.2490   13.3430 O.2   245  THR245     -0.2866
     57  CB        -3.6750  -10.0940   13.5030 C.3   245  THR245      0.1770
     58  OG1       -2.7980   -9.3770   12.6110 O.3   245  THR245     -0.2211
     59  CG2       -2.8300  -10.9410   14.4350 C.3   245  THR245      0.0375
     60  N         -7.2440  -13.3540    7.0810 N.3   250  ARG250     -0.1245
     61  CA        -6.9270  -11.9430    7.3000 C.3   250  ARG250      0.1563
     62  C         -7.8230  -10.9720    6.5410 C.2   250  ARG250      0.2260
     63  O         -8.1220   -9.8600    6.9900 O.2   250  ARG250     -0.2867
     64  CB        -5.4860  -11.6050    6.8980 C.3   250  ARG250      0.0307
     65  CG        -5.0070  -10.3130    7.5530 C.3   250  ARG250      0.0489
     66  CD        -3.5260  -10.0850    7.2350 C.3   250  ARG250      0.2205
     67  NE        -3.1360   -8.7460    7.6460 N.pl3 250  ARG250     -0.0865
     68  CZ        -2.8400   -8.3280    8.8650 C.cat 250  ARG250      0.5346
     69  NH1       -2.8700   -9.1520    9.8960 N.pl3 250  ARG250      0.1354
     70  NH2       -2.5000   -7.0560    9.0760 N.pl3 250  ARG250      0.1354
     71  N         -7.4890   -4.7390    7.1850 N.3   257  ALA257     -0.1231
     72  CA        -6.4920   -5.0210    8.2010 C.3   257  ALA257      0.1694
     73  C         -5.1010   -4.4770    7.8740 C.2   257  ALA257      0.2592
     74  O         -4.2850   -4.3470    8.7940 O.2   257  ALA257     -0.2718
     75  CB        -6.3810   -6.5350    8.3890 C.3   257  ALA257      0.0304
     76  N         -4.8380   -4.1890    6.6170 N.am  258  ASN258     -0.1974
     77  CA        -3.5390   -3.6580    6.1910 C.3   258  ASN258      0.1688
     78  C         -3.5570   -2.1510    6.0760 C.2   258  ASN258      0.2292
     79  O         -2.6380   -1.4620    6.5560 O.2   258  ASN258     -0.2864
     80  CB        -3.1690   -4.3300    4.8580 C.3   258  ASN258      0.1181
     81  CG        -2.8690   -5.8050    5.0190 C.2   258  ASN258      0.2629
     82  OD1       -2.7580   -6.2930    6.1400 O.2   258  ASN258     -0.2716
     83  ND2       -2.7300   -6.5410    3.9210 N.am  258  ASN258     -0.0877
     84  N         -0.4530    2.4160    3.8570 N.3   261  ASP261     -0.1239
     85  CA         0.5940    2.8230    4.7740 C.3   261  ASP261      0.1674
     86  C          1.6630    3.6970    4.1510 C.2   261  ASP261      0.2266
     87  O          2.0680    3.5170    3.0120 O.2   261  ASP261     -0.2867
     88  CB         1.2660    1.5700    5.3600 C.3   261  ASP261      0.1410
     89  CG         1.8470    0.6720    4.2940 C.2   261  ASP261      0.3668
     90  OD1        1.0660    0.1770    3.4480 O.co2 261  ASP261     -0.2456
     91  OD2        3.0810    0.4700    4.3360 O.co2 261  ASP261     -0.2456
     92  N         10.0970    1.7880    3.9810 N.3   266  ARG266     -0.1245
     93  CA         9.4130    0.9400    3.0110 C.3   266  ARG266      0.1563
     94  C          9.3070    1.6350    1.6650 C.2   266  ARG266      0.2260
     95  O          9.4240    1.0480    0.5920 O.2   266  ARG266     -0.2867
     96  CB         8.0190    0.5860    3.5380 C.3   266  ARG266      0.0307
     97  CG         7.3790   -0.4780    2.6740 C.3   266  ARG266      0.0489
     98  CD         6.0790   -1.0120    3.2760 C.3   266  ARG266      0.2205
     99  NE         5.6820   -2.1580    2.4640 N.pl3 266  ARG266     -0.0865
    100  CZ         4.4740   -2.5740    2.1530 C.cat 266  ARG266      0.5346
    101  NH1        3.4190   -1.9080    2.6040 N.pl3 266  ARG266      0.1354
    102  NH2        4.3250   -3.6490    1.3880 N.pl3 266  ARG266      0.1354
    103  N          1.0660   -6.5990   -3.4340 N.3   337  ASP337     -0.1239
    104  CA         0.3230   -6.6760   -2.1930 C.3   337  ASP337      0.1674
    105  C         -1.1680   -6.7870   -2.4890 C.2   337  ASP337      0.2266
    106  O         -1.7050   -6.1760   -3.4040 O.2   337  ASP337     -0.2867
    107  CB         0.5870   -5.4680   -1.2930 C.3   337  ASP337      0.1410
    108  CG         1.3630   -5.8040   -0.0330 C.2   337  ASP337      0.3668
    109  OD1        0.8980   -6.6050    0.8110 O.co2 337  ASP337     -0.2456
    110  OD2        2.4740   -5.2470    0.1220 O.co2 337  ASP337     -0.2456
    111  N          3.4040   -2.3620   22.5650 N.3   365  TRP365     -0.1241
    112  CA         3.0770   -3.8000   22.5500 C.3   365  TRP365      0.1605
    113  C          4.1260   -4.5970   21.7990 C.2   365  TRP365      0.2264
    114  O          4.8510   -3.9830   21.0160 O.2   365  TRP365     -0.2867
    115  CB         1.7030   -3.9570   21.9250 C.3   365  TRP365      0.0550
    116  CG         1.4480   -3.4120   20.5630 C.ar  365  TRP365      0.0003
    117  CD1        1.2490   -2.1080   20.2250 C.ar  365  TRP365      0.0946
    118  CD2        1.3550   -4.1520   19.3430 C.ar  365  TRP365      0.0152
    119  NE1        1.0370   -1.9890   18.8730 N.ar  365  TRP365     -0.2442
    120  CE2        1.0990   -3.2330   18.3110 C.ar  365  TRP365      0.0810
    121  CE3        1.4620   -5.5150   19.0370 C.ar  365  TRP365      0.0012
    122  CZ2        0.9530   -3.6320   16.9780 C.ar  365  TRP365      0.0191
    123  CZ3        1.3170   -5.9090   17.7200 C.ar  365  TRP365      0.0001
    124  CH2        1.0640   -4.9680   16.7120 C.ar  365  TRP365      0.0015
    125  N          4.5420   -8.3030   19.2230 N.3   367  ASP367     -0.1239
    126  CA         3.7850   -9.0370   18.2130 C.3   367  ASP367      0.1674
    127  C          4.0520  -10.5340   18.1980 C.2   367  ASP367      0.2266
    128  O          5.0630  -10.9990   17.6800 O.2   367  ASP367     -0.2867
    129  CB         4.1070   -8.4250   16.8410 C.3   367  ASP367      0.1410
    130  CG         3.3240   -9.0370   15.7070 C.2   367  ASP367      0.3668
    131  OD1        2.4630   -9.9140   15.9510 O.co2 367  ASP367     -0.2456
    132  OD2        3.5460   -8.6920   14.5350 O.co2 367  ASP367     -0.2456
    133  N          6.7420   -6.6320    9.9380 N.3   374  TRP374     -0.1241
    134  CA         6.0620   -5.8010    8.9590 C.3   374  TRP374      0.1605
    135  C          6.3080   -4.3070    9.1700 C.2   374  TRP374      0.2264
    136  O          6.0950   -3.5040    8.2800 O.2   374  TRP374     -0.2867
    137  CB         4.5450   -6.0500    9.0580 C.3   374  TRP374      0.0550
    138  CG         4.0740   -5.8410   10.4710 C.ar  374  TRP374      0.0003
    139  CD1        3.9950   -6.7680   11.4620 C.ar  374  TRP374      0.0946
    140  CD2        3.6230   -4.6060   11.0520 C.ar  374  TRP374      0.0152
    141  NE1        3.5170   -6.2020   12.6190 N.ar  374  TRP374     -0.2442
    142  CE2        3.2830   -4.8650   12.3820 C.ar  374  TRP374      0.0810
    143  CE3        3.4770   -3.3130   10.5380 C.ar  374  TRP374      0.0012
    144  CZ2        2.7990   -3.8770   13.2440 C.ar  374  TRP374      0.0191
    145  CZ3        2.9940   -2.3280   11.3990 C.ar  374  TRP374      0.0001
    146  CH2        2.6650   -2.6140   12.7220 C.ar  374  TRP374      0.0015
    147  N          9.5500   -8.2430    5.4330 N.3   379  TYR379     -0.1228
    148  CA         8.3270   -9.0440    5.5310 C.3   379  TYR379      0.1721
    149  C          7.6570   -9.0280    4.1690 C.2   379  TYR379      0.2437
    150  O          7.6180   -8.0480    3.4260 O.2   379  TYR379     -0.2733
    151  CB         7.4150   -8.5110    6.6250 C.3   379  TYR379      0.0547
    152  CG         6.3430   -9.4230    7.1490 C.ar  379  TYR379     -0.0200
    153  CD1        6.6350  -10.5170    7.9570 C.ar  379  TYR379     -0.0009
    154  CD2        5.0100   -9.1780    6.8380 C.ar  379  TYR379     -0.0009
    155  CE1        5.6400  -11.3480    8.4360 C.ar  379  TYR379      0.0417
    156  CE2        4.0080  -10.0010    7.3090 C.ar  379  TYR379      0.0417
    157  CZ         4.3290  -11.0790    8.1060 C.ar  379  TYR379      0.1957
    158  OH         3.3310  -11.9040    8.5760 O.3   379  TYR379     -0.2866
    159  N          7.1100  -10.1820    3.7940 N.am  380  PRO380     -0.2729
    160  CA         7.2830  -11.4460    4.4880 C.3   380  PRO380      0.1401
    161  C          8.6300  -12.0850    4.1460 C.2   380  PRO380      0.2269
    162  O          9.2100  -11.7850    3.0930 O.2   380  PRO380     -0.2865
    163  CB         6.1650  -12.3010    3.8720 C.3   380  PRO380      0.0296
    164  CG         6.1230  -11.8040    2.4680 C.3   380  PRO380      0.0237
    165  CD         6.2560  -10.3020    2.5920 C.3   380  PRO380      0.0939
    166  N         11.1870   -3.0660    5.3600 N.3   391  ARG391     -0.1245
    167  CA        10.4450   -2.0430    6.0960 C.3   391  ARG391      0.1563
    168  C         11.2700   -1.3660    7.1780 C.2   391  ARG391      0.2260
    169  O         10.9650   -0.2560    7.6270 O.2   391  ARG391     -0.2867
    170  CB         9.2040   -2.6910    6.7450 C.3   391  ARG391      0.0307
    171  CG         8.2320   -3.2180    5.6900 C.3   391  ARG391      0.0489
    172  CD         7.9700   -4.7050    5.8710 C.3   391  ARG391      0.2205
    173  NE         7.0990   -5.1720    4.7930 N.pl3 391  ARG391     -0.0865
    174  CZ         5.7690   -5.1110    4.9270 C.cat 391  ARG391      0.5346
    175  NH1        5.2570   -4.6340    6.0460 N.pl3 391  ARG391      0.1354
    176  NH2        5.0270   -5.5440    3.9250 N.pl3 391  ARG391      0.1354
@<TRIPOS>BOND
     1   103   104    1
     2   106   105    2
     3   105   104    1
     4   104   107    1
     5   107   108    1
     6   108   110   ar
     7   108   109   ar
     8    95    94    2
     9   102   100    1
    10    94    93    1
    11   100    99    2
    12   100   101    1
    13    99    98    1
    14   164   165    1
    15   164   163    1
    16   165   159    1
    17    97    98    1
    18    97    96    1
    19    93    96    1
    20    93    92    1
    21    87    86    2
    22   162   161    2
    23   150   149    2
    24    90    89   ar
    25   159   149   am
    26   159   160    1
    27    84    85    1
    28   163   160    1
    29    83    81   am
    30   176   174    1
    31   161   160    1
    32    86    85    1
    33   149   148    1
    34    89    91   ar
    35    89    88    1
    36    85    88    1
    37   173   174    2
    38   173   172    1
    39    80    81    1
    40    80    77    1
    41   174   175    1
    42    81    82    2
    43   166   167    1
    44   147   148    1
    45   148   151    1
    46   171   172    1
    47   171   170    1
    48    78    77    1
    49    78    79    2
    50   167   170    1
    51   167   168    1
    52    77    76    1
    53    62    63    2
    54    62    61    1
    55    76    73   am
    56   151   152    1
    57   154   152   ar
    58   154   156   ar
    59    64    61    1
    60    64    65    1
    61    60    61    1
    62   152   153   ar
    63   168   169    2
    64    71    72    1
    65    66    65    1
    66    66    67    1
    67    42    40    1
    68   156   157   ar
    69    44    45    1
    70    44    43    1
    71    44    47    1
    72    67    68    2
    73    45    46    2
    74    73    72    1
    75    73    74    2
    76   153   155   ar
    77    37    40    1
    78    37    38    1
    79    37    36    1
    80   157   155   ar
    81   157   158    1
    82    41    40    1
    83    72    75    1
    84   136   135    2
    85    38    39    2
    86    47    48    1
    87    49    48   ar
    88    49    51   ar
    89    68    70    1
    90    68    69    1
    91    48    50   ar
    92   134   137    1
    93   134   135    1
    94   134   133    1
    95   137   138    1
    96    51    52   ar
    97    50    52   ar
    98   138   140   ar
    99   138   139   ar
   100   143   140   ar
   101   143   145   ar
   102    13    12    2
   103   140   142   ar
   104   145   146   ar
   105   139   141   ar
   106    22    21    2
   107     9     7   am
   108     8     7    2
   109    12    11    1
   110    10    11    1
   111    19    20    1
   112    35    33   ar
   113    26    24   ar
   114     7     6    1
   115    53    54    1
   116    23    20    1
   117    23    24    1
   118   142   141   ar
   119   142   144   ar
   120    21    20    1
   121     4     3    2
   122    11    14    1
   123    58    57    1
   124    54    55    1
   125    54    57    1
   126   146   144   ar
   127     1     2    1
   128    24    25   ar
   129     2     3    1
   130     2     5    1
   131    14    15    1
   132    33    32    1
   133    33    34   ar
   134    56    55    2
   135    57    59    1
   136    30    29    2
   137    17    16   ar
   138     6     5    1
   139    15    16    1
   140    16    18   ar
   141    32    31    1
   142    31    28    1
   143    27    28    1
   144   132   130   ar
   145    29    28    1
   146   130   131   ar
   147   130   129    1
   148   124   122   ar
   149   124   123   ar
   150   129   126    1
   151   122   120   ar
   152   128   127    2
   153   123   121   ar
   154   127   126    1
   155   126   125    1
   156   120   119   ar
   157   120   118   ar
   158   119   117   ar
   159   121   118   ar
   160   118   116   ar
   161   117   116   ar
   162   116   115    1
   163   114   113    2
   164   113   112    1
   165   115   112    1
   166   112   111    1
