@<TRIPOS>MOLECULE
tmp/2rfzA01.pdb
 223 221 0 0 0
SMALL
GASTEIGER

@<TRIPOS>ATOM
      1  N          8.0910   -7.8710   55.7780 N.3    36  ASN36      -0.1225
      2  CA         7.5770   -9.2400   55.9020 C.3    36  ASN36       0.1785
      3  C          6.5160   -9.5340   54.8530 C.2    36  ASN36       0.2597
      4  O          6.0260  -10.6520   54.6970 O.2    36  ASN36      -0.2718
      5  CB         7.0210   -9.4620   57.3080 C.3    36  ASN36       0.1169
      6  CG         7.6360  -10.6770   57.9810 C.2    36  ASN36       0.2627
      7  OD1        8.7790  -11.0510   57.7180 O.2    36  ASN36      -0.2716
      8  ND2        6.8800  -11.3180   58.8600 N.am   36  ASN36      -0.0877
      9  N          6.1370   -8.5030   54.0980 N.am   37  TRP37      -0.1962
     10  CA         5.0270   -8.6890   53.1670 C.3    37  TRP37       0.1771
     11  C          5.5370   -8.8670   51.7420 C.2    37  TRP37       0.2619
     12  O          4.7310   -9.1360   50.8480 O.2    37  TRP37      -0.2715
     13  CB         4.0430   -7.5240   53.2400 C.3    37  TRP37       0.0590
     14  CG         3.1900   -7.4420   54.4670 C.ar   37  TRP37       0.0006
     15  CD1        1.8260   -7.5400   54.4940 C.ar   37  TRP37       0.0946
     16  CD2        3.5940   -7.2420   55.8290 C.ar   37  TRP37       0.0152
     17  NE1        1.3610   -7.4180   55.7840 N.ar   37  TRP37      -0.2442
     18  CE2        2.4290   -7.2350   56.6190 C.ar   37  TRP37       0.0810
     19  CE3        4.8260   -7.0700   56.4640 C.ar   37  TRP37       0.0012
     20  CZ2        2.4450   -7.0670   58.0030 C.ar   37  TRP37       0.0191
     21  CZ3        4.8500   -6.9010   57.8300 C.ar   37  TRP37       0.0001
     22  CH2        3.6680   -6.8990   58.5820 C.ar   37  TRP37       0.0015
     23  N          6.8400   -8.7200   51.5210 N.am   38  ARG38      -0.1963
     24  CA         7.3670   -8.8070   50.1600 C.3    38  ARG38       0.1729
     25  C          7.7290  -10.2390   49.7740 C.2    38  ARG38       0.2616
     26  O          7.6230  -11.1780   50.5600 O.2    38  ARG38      -0.2715
     27  CB         8.5880   -7.9100   49.9540 C.3    38  ARG38       0.0348
     28  CG         9.2150   -7.3010   51.1880 C.3    38  ARG38       0.0492
     29  CD        10.2520   -6.2420   50.8240 C.3    38  ARG38       0.2205
     30  NE         9.8190   -4.9200   51.2560 N.pl3  38  ARG38      -0.0865
     31  CZ         9.3040   -4.0090   50.4410 C.cat  38  ARG38       0.5346
     32  NH1        9.1680   -4.2960   49.1530 N.pl3  38  ARG38       0.1354
     33  NH2        8.9220   -2.8210   50.8880 N.pl3  38  ARG38       0.1354
     34  N          8.1720  -10.4080   48.5250 N.am   39  TRP39      -0.1974
     35  CA         8.5520  -11.7390   48.0680 C.3    39  TRP39       0.1640
     36  C         10.0570  -11.9710   48.1490 C.2    39  TRP39       0.2290
     37  O         10.8530  -11.1040   47.7960 O.2    39  TRP39      -0.2864
     38  CB         8.0310  -11.9900   46.6380 C.3    39  TRP39       0.0576
     39  CG         7.0280  -13.1190   46.6570 C.ar   39  TRP39       0.0006
     40  CD1        6.5650  -13.6840   47.8160 C.ar   39  TRP39       0.0946
     41  CD2        6.3740  -13.8230   45.5990 C.ar   39  TRP39       0.0152
     42  NE1        5.6680  -14.6840   47.5490 N.ar   39  TRP39      -0.2442
     43  CE2        5.5320  -14.7920   46.1870 C.ar   39  TRP39       0.0810
     44  CE3        6.3960  -13.7510   44.2030 C.ar   39  TRP39       0.0012
     45  CZ2        4.7360  -15.6660   45.4520 C.ar   39  TRP39       0.0191
     46  CZ3        5.6060  -14.6170   43.4750 C.ar   39  TRP39       0.0001
     47  CH2        4.7850  -15.5650   44.0920 C.ar   39  TRP39       0.0015
     48  N         10.7680  -18.6940   50.6340 N.3    49  TYR49      -0.1241
     49  CA         9.6720  -18.7650   51.5720 C.3    49  TYR49       0.1605
     50  C          8.3320  -18.6420   50.8430 C.2    49  TYR49       0.2264
     51  O          7.9720  -17.5850   50.3240 O.2    49  TYR49      -0.2867
     52  CB         9.7940  -17.6680   52.6330 C.3    49  TYR49       0.0534
     53  CG         8.9220  -17.8680   53.8490 C.ar   49  TYR49      -0.0201
     54  CD1        9.2450  -18.8150   54.8130 C.ar   49  TYR49      -0.0009
     55  CD2        7.7720  -17.1170   54.0450 C.ar   49  TYR49      -0.0009
     56  CE1        8.4520  -19.0040   55.9280 C.ar   49  TYR49       0.0417
     57  CE2        6.9720  -17.2980   55.1570 C.ar   49  TYR49       0.0417
     58  CZ         7.3170  -18.2430   56.0970 C.ar   49  TYR49       0.1957
     59  OH         6.5280  -18.4370   57.2100 O.3    49  TYR49      -0.2866
     60  N          4.1540  -19.4010   51.4910 N.3    51  GLY51      -0.1225
     61  CA         3.2060  -19.5670   52.5830 C.3    51  GLY51       0.1811
     62  C          3.8570  -19.3830   53.9420 C.2    51  GLY51       0.2280
     63  O          4.6310  -18.4440   54.1410 O.2    51  GLY51      -0.2866
     64  N         -2.6430   -4.9550   45.8420 N.3    79  THR79      -0.1203
     65  CA        -2.0060   -6.1060   46.4490 C.3    79  THR79       0.1994
     66  C         -2.0650   -6.0510   47.9700 C.2    79  THR79       0.2617
     67  O         -2.0160   -7.1040   48.6110 O.2    79  THR79      -0.2717
     68  CB        -0.5270   -6.2090   46.0140 C.3    79  THR79       0.1784
     69  OG1       -0.4340   -5.9890   44.5980 O.3    79  THR79      -0.2211
     70  CG2        0.0170   -7.6000   46.2890 C.3    79  THR79       0.0376
     71  N         -2.1590   -4.8540   48.5460 N.am   80  TYR80      -0.1975
     72  CA        -2.0870   -4.7380   50.0010 C.3    80  TYR80       0.1639
     73  C         -3.0140   -3.6930   50.6050 C.2    80  TYR80       0.2290
     74  O         -2.8610   -3.3830   51.7920 O.2    80  TYR80      -0.2864
     75  CB        -0.6690   -4.3660   50.4280 C.3    80  TYR80       0.0560
     76  CG         0.4190   -5.3520   50.1110 C.ar   80  TYR80      -0.0198
     77  CD1        0.6350   -6.4490   50.9390 C.ar   80  TYR80      -0.0009
     78  CD2        1.2430   -5.1960   49.0050 C.ar   80  TYR80      -0.0009
     79  CE1        1.6340   -7.3570   50.6590 C.ar   80  TYR80       0.0417
     80  CE2        2.2450   -6.1000   48.7170 C.ar   80  TYR80       0.0417
     81  CZ         2.4290   -7.1780   49.5560 C.ar   80  TYR80       0.1957
     82  OH         3.4210   -8.0850   49.2830 O.3    80  TYR80      -0.2866
     83  N         -7.2850  -10.3890   45.7930 N.3    97  HIS97      -0.1241
     84  CA        -6.6450  -10.2660   44.4820 C.3    97  HIS97       0.1621
     85  C         -6.5980  -11.6200   43.7600 C.2    97  HIS97       0.2264
     86  O         -6.8460  -12.6400   44.4040 O.2    97  HIS97      -0.2867
     87  CB        -5.2530   -9.6640   44.5850 C.3    97  HIS97       0.0745
     88  CG        -4.1580  -10.5040   45.1480 C.ar   97  HIS97       0.0817
     89  ND1       -3.6770  -10.3250   46.4290 N.ar   97  HIS97      -0.2268
     90  CD2       -3.4180  -11.5090   44.6280 C.ar   97  HIS97       0.1154
     91  CE1       -2.7050  -11.1820   46.6780 C.ar   97  HIS97       0.1986
     92  NE2       -2.5310  -11.9170   45.5950 N.ar   97  HIS97      -0.2212
     93  N         -4.1160  -14.6120   45.7100 N.3   100  GLY100     -0.1210
     94  CA        -3.5520  -14.3500   47.0210 C.3   100  GLY100      0.1956
     95  C         -4.5820  -13.8250   48.0070 C.2   100  GLY100      0.2613
     96  O         -5.7820  -13.9880   47.7770 O.2   100  GLY100     -0.2717
     97  N         -4.1270  -13.2060   49.0940 N.am  101  THR101     -0.1938
     98  CA        -5.0070  -12.5960   50.0790 C.3   101  THR101      0.2028
     99  C         -4.2330  -11.9180   51.2080 C.2   101  THR101      0.2642
    100  O         -4.0520  -12.5150   52.2710 O.2   101  THR101     -0.2714
    101  CB        -5.9670  -13.6050   50.7400 C.3   101  THR101      0.1808
    102  OG1       -6.8990  -14.1080   49.7810 O.3   101  THR101     -0.2208
    103  CG2       -6.7850  -12.9090   51.8170 C.3   101  THR101      0.0379
    104  N         -3.7940  -10.6830   50.9860 N.am  102  ASN102     -0.1957
    105  CA        -3.0690   -9.9340   52.0040 C.3   102  ASN102      0.1819
    106  C         -3.9690   -9.6120   53.1990 C.2   102  ASN102      0.2621
    107  O         -5.1270   -9.2340   53.0410 O.2   102  ASN102     -0.2715
    108  CB        -2.4820   -8.6310   51.4570 C.3   102  ASN102      0.1195
    109  CG        -1.9460   -7.7340   52.5570 C.2   102  ASN102      0.2630
    110  OD1       -0.9650   -8.0820   53.2140 O.2   102  ASN102     -0.2716
    111  ND2       -2.5760   -6.5890   52.7740 N.am  102  ASN102     -0.0877
    112  N         -3.3780   -9.7790   54.3710 N.am  103  VAL103     -0.1963
    113  CA        -4.0020   -9.5850   55.6660 C.3   103  VAL103      0.1727
    114  C         -3.2210   -8.6050   56.5210 C.2   103  VAL103      0.2616
    115  O         -2.0900   -8.8880   56.9170 O.2   103  VAL103     -0.2715
    116  CB        -4.0820  -10.9270   56.4200 C.3   103  VAL103      0.0290
    117  CG1       -5.1080  -10.8600   57.5380 C.3   103  VAL103      0.0023
    118  CG2       -4.3930  -12.0170   55.4100 C.3   103  VAL103      0.0023
    119  N         -3.7980   -7.4410   56.7890 N.am  104  GLY104     -0.1955
    120  CA        -3.1240   -6.3940   57.5250 C.3   104  GLY104      0.1869
    121  C         -1.7180   -6.0790   57.0740 C.2   104  GLY104      0.2309
    122  O         -1.0110   -6.9020   56.4890 O.2   104  GLY104     -0.2863
    123  N          1.9500   -3.1320   57.7620 N.3   106  ARG106     -0.1245
    124  CA         2.7120   -2.1770   58.5500 C.3   106  ARG106      0.1563
    125  C          3.4090   -1.1590   57.6570 C.2   106  ARG106      0.2260
    126  O          3.9050   -1.4850   56.5810 O.2   106  ARG106     -0.2867
    127  CB         3.7450   -2.9120   59.4100 C.3   106  ARG106      0.0307
    128  CG         3.6290   -2.6340   60.8990 C.3   106  ARG106      0.0489
    129  CD         3.7840   -3.9300   61.6850 C.3   106  ARG106      0.2205
    130  NE         5.1040   -4.5270   61.4780 N.pl3 106  ARG106     -0.0865
    131  CZ         5.3370   -5.8330   61.4800 C.cat 106  ARG106      0.5346
    132  NH1        4.3390   -6.6820   61.6760 N.pl3 106  ARG106      0.1354
    133  NH2        6.5670   -6.2950   61.2830 N.pl3 106  ARG106      0.1354
    134  N          8.5930  -13.0160   64.3990 N.3   178  ASP178     -0.1239
    135  CA         7.9130  -13.4300   63.1700 C.3   178  ASP178      0.1674
    136  C          8.6410  -12.9750   61.9120 C.2   178  ASP178      0.2266
    137  O          8.4190  -13.5180   60.8250 O.2   178  ASP178     -0.2867
    138  CB         6.4710  -12.9140   63.1310 C.3   178  ASP178      0.1410
    139  CG         6.1650  -11.9830   61.9760 C.2   178  ASP178      0.3668
    140  OD1        6.7760  -10.8910   61.9270 O.co2 178  ASP178     -0.2456
    141  OD2        5.3140  -12.3280   61.1190 O.co2 178  ASP178     -0.2456
    142  N         11.2150  -12.4920   58.8640 N.3   180  LYS180     -0.1245
    143  CA        11.9050  -13.6230   58.2360 C.3   180  LYS180      0.1561
    144  C         13.4220  -13.4420   58.3210 C.2   180  LYS180      0.2260
    145  O         14.1350  -14.4330   58.1750 O.2   180  LYS180     -0.2867
    146  CB        11.4930  -13.8070   56.7810 C.3   180  LYS180      0.0271
    147  CG        10.1290  -14.4520   56.6020 C.3   180  LYS180      0.0035
    148  CD         9.0830  -13.4190   56.2160 C.3   180  LYS180      0.0206
    149  CE         8.7260  -13.4870   54.7440 C.3   180  LYS180      0.1093
    150  NZ         7.6390  -12.5320   54.3810 N.3   180  LYS180     -0.1314
    151  N         -2.3570  -19.0140   61.1130 N.3   197  ASP197     -0.1239
    152  CA        -1.9520  -18.0470   60.1030 C.3   197  ASP197      0.1674
    153  C         -1.1880  -18.6710   58.9390 C.2   197  ASP197      0.2266
    154  O         -0.0290  -19.0610   59.0690 O.2   197  ASP197     -0.2867
    155  CB        -1.0810  -16.9420   60.7190 C.3   197  ASP197      0.1410
    156  CG        -0.8790  -15.8030   59.7340 C.2   197  ASP197      0.3668
    157  OD1       -0.2290  -16.0300   58.6920 O.co2 197  ASP197     -0.2456
    158  OD2       -1.3660  -14.6860   60.0050 O.co2 197  ASP197     -0.2456
    159  N          0.1480  -17.3510   56.6040 N.3   199  ASN199     -0.1225
    160  CA         1.2620  -16.5370   56.1150 C.3   199  ASN199      0.1785
    161  C          2.3740  -16.4200   57.1500 C.2   199  ASN199      0.2597
    162  O          3.4510  -15.8950   56.8690 O.2   199  ASN199     -0.2718
    163  CB         0.8000  -15.1310   55.7430 C.3   199  ASN199      0.1169
    164  CG         0.4520  -14.9500   54.2860 C.2   199  ASN199      0.2627
    165  OD1        1.3070  -14.6410   53.4580 O.2   199  ASN199     -0.2716
    166  ND2       -0.8170  -15.1230   53.9560 N.am  199  ASN199     -0.0877
    167  N          2.0910  -16.8980   58.3590 N.am  200  ALA200     -0.1979
    168  CA         3.0250  -16.6810   59.4520 C.3   200  ALA200      0.1597
    169  C          3.7620  -17.9400   59.8980 C.2   200  ALA200      0.2287
    170  O          3.4440  -19.0550   59.5010 O.2   200  ALA200     -0.2864
    171  CB         2.2800  -16.0770   60.6410 C.3   200  ALA200      0.0319
    172  N          5.6540  -14.6150   71.2320 N.3   246  TYR246     -0.1241
    173  CA         6.2250  -15.5570   70.2940 C.3   246  TYR246      0.1605
    174  C          7.2100  -16.5060   70.9660 C.2   246  TYR246      0.2264
    175  O          7.7670  -17.3330   70.2430 O.2   246  TYR246     -0.2867
    176  CB         6.9580  -14.8380   69.1560 C.3   246  TYR246      0.0534
    177  CG         6.1250  -13.8760   68.3540 C.ar  246  TYR246     -0.0201
    178  CD1        4.8750  -14.2320   67.8730 C.ar  246  TYR246     -0.0009
    179  CD2        6.5870  -12.5940   68.0570 C.ar  246  TYR246     -0.0009
    180  CE1        4.1010  -13.3550   67.1320 C.ar  246  TYR246      0.0417
    181  CE2        5.8190  -11.7110   67.3170 C.ar  246  TYR246      0.0417
    182  CZ         4.5790  -12.0930   66.8580 C.ar  246  TYR246      0.1957
    183  OH         3.8170  -11.2160   66.1170 O.3   246  TYR246     -0.2866
    184  N         -4.0530   -4.7970   61.7260 N.3   365  TRP365     -0.1227
    185  CA        -3.7440   -6.2000   61.9100 C.3   365  TRP365      0.1737
    186  C         -4.7440   -6.8960   62.8330 C.2   365  TRP365      0.2595
    187  O         -5.4380   -6.2530   63.6220 O.2   365  TRP365     -0.2718
    188  CB        -2.3410   -6.3570   62.5220 C.3   365  TRP365      0.0564
    189  CG        -2.1660   -5.6750   63.8490 C.ar  365  TRP365      0.0003
    190  CD1       -2.2390   -4.3270   64.0580 C.ar  365  TRP365      0.0946
    191  CD2       -1.8950   -6.2460   65.1370 C.ar  365  TRP365      0.0152
    192  NE1       -2.0340   -4.0270   65.3790 N.ar  365  TRP365     -0.2442
    193  CE2       -1.8180   -5.1920   66.0700 C.ar  365  TRP365      0.0810
    194  CE3       -1.7050   -7.5430   65.6250 C.ar  365  TRP365      0.0012
    195  CZ2       -1.5670   -5.3670   67.4350 C.ar  365  TRP365      0.0191
    196  CZ3       -1.4550   -7.7220   66.9730 C.ar  365  TRP365      0.0001
    197  CH2       -1.3850   -6.6520   67.8710 C.ar  365  TRP365      0.0015
    198  N         -4.7930   -8.2170   62.7270 N.am  366  ASP366     -0.1960
    199  CA        -5.5060   -9.0760   63.6650 C.3   366  ASP366      0.1840
    200  C         -4.5000  -10.0600   64.2640 C.2   366  ASP366      0.2622
    201  O         -3.4980  -10.4070   63.6320 O.2   366  ASP366     -0.2715
    202  CB        -6.6930   -9.7780   63.0250 C.3   366  ASP366      0.1450
    203  CG        -6.3200  -10.7680   61.9460 C.2   366  ASP366      0.3671
    204  OD1       -5.1110  -10.8470   61.6500 O.co2 366  ASP366     -0.2456
    205  OD2       -7.2250  -11.4400   61.4100 O.co2 366  ASP366     -0.2456
    206  N         -4.7600  -10.4790   65.4990 N.am  367  ASP367     -0.1957
    207  CA        -3.7400  -11.1680   66.2870 C.3   367  ASP367      0.1840
    208  C         -4.1170  -12.6010   66.6120 C.2   367  ASP367      0.2622
    209  O         -5.0670  -12.8790   67.3430 O.2   367  ASP367     -0.2715
    210  CB        -3.4720  -10.3390   67.5460 C.3   367  ASP367      0.1450
    211  CG        -3.5090  -11.1090   68.8450 C.2   367  ASP367      0.3671
    212  OD1       -2.7570  -12.0920   69.0010 O.co2 367  ASP367     -0.2456
    213  OD2       -4.3010  -10.7300   69.7390 O.co2 367  ASP367     -0.2456
    214  N         -3.3540  -13.5350   66.0570 N.am  368  HIS368     -0.1973
    215  CA        -3.6520  -14.9580   66.1230 C.3   368  HIS368      0.1656
    216  C         -3.6310  -15.5550   67.5210 C.2   368  HIS368      0.2291
    217  O         -4.3540  -16.5140   67.8070 O.2   368  HIS368     -0.2864
    218  CB        -2.6300  -15.7110   65.2480 C.3   368  HIS368      0.0771
    219  CG        -3.1390  -15.8840   63.8490 C.ar  368  HIS368      0.0820
    220  ND1       -3.5000  -14.8120   63.0650 N.ar  368  HIS368     -0.2267
    221  CD2       -3.3570  -16.9890   63.1060 C.ar  368  HIS368      0.1154
    222  CE1       -3.9160  -15.2440   61.8900 C.ar  368  HIS368      0.1986
    223  NE2       -3.8380  -16.5640   61.8930 N.ar  368  HIS368     -0.2212
@<TRIPOS>BOND
     1    46    47   ar
     2    46    44   ar
     3    85    86    2
     4    85    84    1
     5    47    45   ar
     6    44    41   ar
     7    84    87    1
     8    84    83    1
     9    87    88    1
    10    69    68    1
    11    90    88   ar
    12    90    92   ar
    13    88    89   ar
    14    45    43   ar
    15    92    91   ar
    16    41    43   ar
    17    41    39   ar
    18    93    94    1
    19    64    65    1
    20    68    70    1
    21    68    65    1
    22    43    42   ar
    23    89    91   ar
    24    65    66    1
    25    38    39    1
    26    38    35    1
    27    39    40   ar
    28    94    95    1
    29    42    40   ar
    30    96    95    2
    31    37    36    2
    32    66    71   am
    33    66    67    2
    34    95    97   am
    35    35    36    1
    36    35    34    1
    37    34    25   am
    38    71    72    1
    39    80    78   ar
    40    80    81   ar
    41    78    76   ar
    42    97    98    1
    43    32    31    1
    44    82    81    1
    45    81    79   ar
    46    25    24    1
    47    25    26    2
    48   102   101    1
    49    27    24    1
    50    27    28    1
    51    72    75    1
    52    72    73    1
    53    98   101    1
    54    98    99    1
    55    76    75    1
    56    76    77   ar
    57    24    23    1
    58    51    50    2
    59    31    33    1
    60    31    30    2
    61    73    74    2
    62    48    49    1
    63    79    77   ar
    64   101   103    1
    65    29    28    1
    66    29    30    1
    67    50    49    1
    68    12    11    2
    69   104    99   am
    70   104   105    1
    71    99   100    2
    72   108   105    1
    73   108   109    1
    74    60    61    1
    75    23    11   am
    76    49    52    1
    77    11    10    1
    78   105   106    1
    79   109   111   am
    80   109   110    2
    81    61    62    1
    82    52    53    1
    83   107   106    2
    84    10    13    1
    85    10     9    1
    86   106   112   am
    87    13    14    1
    88   165   164    2
    89    53    55   ar
    90    53    54   ar
    91    62    63    2
    92   166   164   am
    93    55    57   ar
    94     9     3   am
    95   164   163    1
    96   112   113    1
    97   150   149    1
    98    14    15   ar
    99    14    16   ar
   100    15    17   ar
   101     4     3    2
   102   149   148    1
   103    54    56   ar
   104     3     2    1
   105    57    58   ar
   106   118   116    1
   107   113   116    1
   108   113   114    1
   109   163   160    1
   110     1     2    1
   111    17    18   ar
   112    16    19   ar
   113    16    18   ar
   114     2     5    1
   115    56    58   ar
   116    58    59    1
   117   160   159    1
   118   160   161    1
   119   148   147    1
   120   116   117    1
   121    19    21   ar
   122   122   121    2
   123   114   119   am
   124   114   115    2
   125   126   125    2
   126   147   146    1
   127    18    20   ar
   128   146   143    1
   129   119   120    1
   130   162   161    2
   131   121   120    1
   132   161   167   am
   133     5     6    1
   134   125   124    1
   135     7     6    2
   136   123   124    1
   137    21    22   ar
   138     6     8   am
   139    20    22   ar
   140   145   144    2
   141   143   144    1
   142   143   142    1
   143   167   168    1
   144   124   127    1
   145   157   156   ar
   146   153   154    2
   147   153   152    1
   148   127   128    1
   149   168   169    1
   150   168   171    1
   151   170   169    2
   152   156   158   ar
   153   156   155    1
   154   152   155    1
   155   152   151    1
   156   137   136    2
   157   128   129    1
   158   141   139   ar
   159   133   131    1
   160   205   203   ar
   161   130   131    2
   162   130   129    1
   163   131   132    1
   164   204   203   ar
   165   184   185    1
   166   222   223   ar
   167   222   220   ar
   168   223   221   ar
   169   185   188    1
   170   185   186    1
   171   136   135    1
   172   140   139   ar
   173   203   202    1
   174   139   138    1
   175   188   189    1
   176   198   186   am
   177   198   199    1
   178   186   187    2
   179   202   199    1
   180   220   219   ar
   181   221   219   ar
   182   138   135    1
   183   135   134    1
   184   201   200    2
   185   199   200    1
   186   219   218    1
   187   189   190   ar
   188   189   191   ar
   189   190   192   ar
   190   200   206   am
   191   191   194   ar
   192   191   193   ar
   193   218   215    1
   194   192   193   ar
   195   206   207    1
   196   194   196   ar
   197   214   215    1
   198   214   208   am
   199   193   195   ar
   200   183   182    1
   201   215   216    1
   202   207   208    1
   203   207   210    1
   204   208   209    2
   205   182   180   ar
   206   182   181   ar
   207   196   197   ar
   208   180   178   ar
   209   181   179   ar
   210   195   197   ar
   211   216   217    2
   212   210   211    1
   213   178   177   ar
   214   179   177   ar
   215   177   176    1
   216   211   212   ar
   217   211   213   ar
   218   176   173    1
   219   175   174    2
   220   173   174    1
   221   173   172    1
