@<TRIPOS>MOLECULE
tmp/2rfzD00.pdb
 241 228 0 0 0
SMALL
GASTEIGER

@<TRIPOS>ATOM
      1  N         -2.5250   -0.9640   26.6670 N.3   106  ARG106     -0.1245
      2  CA        -3.3420   -0.1430   25.7940 C.3   106  ARG106      0.1563
      3  C         -4.1780    0.8370   26.6190 C.2   106  ARG106      0.2260
      4  O         -4.9090    0.4010   27.5070 O.2   106  ARG106     -0.2867
      5  CB        -4.2610   -0.9840   24.9120 C.3   106  ARG106      0.0307
      6  CG        -4.8990   -0.2720   23.7360 C.3   106  ARG106      0.0489
      7  CD        -5.3360   -1.2380   22.6360 C.3   106  ARG106      0.2205
      8  NE        -6.4160   -2.1230   23.0830 N.pl3 106  ARG106     -0.0865
      9  CZ        -6.3410   -3.4490   22.9600 C.cat 106  ARG106      0.5346
     10  NH1       -5.2350   -3.9230   22.4130 N.pl3 106  ARG106      0.1354
     11  NH2       -7.3240   -4.2390   23.3700 N.pl3 106  ARG106      0.1354
     12  N          2.5510    2.1760   20.0350 N.3   142  ALA142     -0.1245
     13  CA         1.5450    2.5280   19.0320 C.3   142  ALA142      0.1562
     14  C          0.6070    3.6470   19.4480 C.2   142  ALA142      0.2260
     15  O          0.0280    3.6490   20.5270 O.2   142  ALA142     -0.2867
     16  CB         0.6870    1.3150   18.6570 C.3   142  ALA142      0.0290
     17  N         -2.7390    5.3430   17.5880 N.3   144  TYR144     -0.1241
     18  CA        -3.7040    5.3360   16.5060 C.3   144  TYR144      0.1605
     19  C         -5.0910    5.7990   16.9520 C.2   144  TYR144      0.2264
     20  O         -5.3180    5.9620   18.1530 O.2   144  TYR144     -0.2867
     21  CB        -3.8290    3.9270   15.9270 C.3   144  TYR144      0.0534
     22  CG        -4.0950    2.8040   16.9010 C.ar  144  TYR144     -0.0201
     23  CD1       -3.0940    2.3610   17.7760 C.ar  144  TYR144     -0.0009
     24  CD2       -5.3270    2.1740   16.9480 C.ar  144  TYR144     -0.0009
     25  CE1       -3.3390    1.3250   18.6670 C.ar  144  TYR144      0.0417
     26  CE2       -5.5810    1.1400   17.8400 C.ar  144  TYR144      0.0417
     27  CZ        -4.5830    0.7240   18.6910 C.ar  144  TYR144      0.1957
     28  OH        -4.8550   -0.3050   19.5640 O.3   144  TYR144     -0.2866
     29  N        -13.1610   -1.6130   22.9130 N.3   170  TYR170     -0.1241
     30  CA       -12.1650   -1.5450   21.8500 C.3   170  TYR170      0.1605
     31  C        -12.5880   -2.3380   20.6190 C.2   170  TYR170      0.2264
     32  O        -13.3340   -3.3040   20.6910 O.2   170  TYR170     -0.2867
     33  CB       -10.8110   -2.0670   22.3150 C.3   170  TYR170      0.0534
     34  CG        -9.6930   -2.0240   21.3030 C.ar  170  TYR170     -0.0201
     35  CD1       -9.0200   -0.8350   21.0200 C.ar  170  TYR170     -0.0009
     36  CD2       -9.3120   -3.1800   20.6330 C.ar  170  TYR170     -0.0009
     37  CE1       -7.9950   -0.8460   20.0800 C.ar  170  TYR170      0.0417
     38  CE2       -8.2860   -3.1810   19.7000 C.ar  170  TYR170      0.0417
     39  CZ        -7.6310   -2.0000   19.4280 C.ar  170  TYR170      0.1957
     40  OH        -6.6060   -1.9930   18.4960 O.3   170  TYR170     -0.2866
     41  N        -10.7900   -2.6030   16.3010 N.3   172  ASP172     -0.1239
     42  CA        -9.8680   -2.0990   15.2820 C.3   172  ASP172      0.1674
     43  C        -10.0720   -2.8440   13.9610 C.2   172  ASP172      0.2266
     44  O        -10.9180   -3.7420   13.8430 O.2   172  ASP172     -0.2867
     45  CB        -8.4050   -2.1810   15.7270 C.3   172  ASP172      0.1410
     46  CG        -7.9030   -3.5920   15.9580 C.2   172  ASP172      0.3668
     47  OD1       -8.6620   -4.5280   15.6800 O.co2 172  ASP172     -0.2456
     48  OD2       -6.7700   -3.8500   16.3950 O.co2 172  ASP172     -0.2456
     49  N         -8.4060   -5.0100   12.5640 N.3   174  GLN174     -0.1245
     50  CA        -8.0050   -6.4040   12.6770 C.3   174  GLN174      0.1566
     51  C         -9.1790   -7.2690   13.1550 C.2   174  GLN174      0.2260
     52  O         -9.2050   -8.4660   12.8740 O.2   174  GLN174     -0.2867
     53  CB        -6.8340   -6.6030   13.6450 C.3   174  GLN174      0.0367
     54  CG        -5.4840   -6.1330   13.1100 C.3   174  GLN174      0.0905
     55  CD        -5.1610   -6.7410   11.7620 C.2   174  GLN174      0.2608
     56  OE1       -5.2400   -7.9630   11.5900 O.2   174  GLN174     -0.2717
     57  NE2       -4.7900   -5.9210   10.7860 N.am  174  GLN174     -0.0878
     58  N        -10.0220    2.2560   11.6840 N.3   211  GLU211     -0.1245
     59  CA        -8.8820    2.4710   12.5790 C.3   211  GLU211      0.1567
     60  C         -7.8280    3.2220   11.7850 C.2   211  GLU211      0.2260
     61  O         -7.3850    2.8020   10.7080 O.2   211  GLU211     -0.2867
     62  CB        -8.3600    1.1560   13.1360 C.3   211  GLU211      0.0388
     63  CG        -6.9310    1.1840   13.6460 C.3   211  GLU211      0.1160
     64  CD        -6.2720   -0.1840   13.5640 C.2   211  GLU211      0.3649
     65  OE1       -6.9380   -1.1470   13.1230 O.co2 211  GLU211     -0.2457
     66  OE2       -5.0900   -0.3140   13.9260 O.co2 211  GLU211     -0.2457
     67  N         -4.2520    4.1150   12.0140 N.3   213  ASP213     -0.1239
     68  CA        -2.9510    4.0820   12.6730 C.3   213  ASP213      0.1674
     69  C         -2.1070    5.2650   12.1930 C.2   213  ASP213      0.2266
     70  O         -1.4270    5.2550   11.1700 O.2   213  ASP213     -0.2867
     71  CB        -2.1920    2.7740   12.4540 C.3   213  ASP213      0.1410
     72  CG        -3.0280    1.5340   12.6860 C.2   213  ASP213      0.3668
     73  OD1       -4.1020    1.6520   13.3090 O.co2 213  ASP213     -0.2456
     74  OD2       -2.6340    0.4360   12.2520 O.co2 213  ASP213     -0.2456
     75  N          2.4940    3.8500   14.0510 N.3   216  GLU216     -0.1245
     76  CA         2.9430    2.5340   14.4840 C.3   216  GLU216      0.1567
     77  C          4.4640    2.5890   14.4310 C.2   216  GLU216      0.2260
     78  O          5.0410    2.8860   13.3790 O.2   216  GLU216     -0.2867
     79  CB         2.4110    1.4300   13.5880 C.3   216  GLU216      0.0388
     80  CG         0.9330    1.4910   13.2480 C.3   216  GLU216      0.1160
     81  CD         0.1870    0.3020   13.8280 C.2   216  GLU216      0.3649
     82  OE1        0.4460   -0.0120   15.0110 O.co2 216  GLU216     -0.2457
     83  OE2       -0.6350   -0.3050   13.1110 O.co2 216  GLU216     -0.2457
     84  N         -0.9410    4.6440    8.6250 N.3   225  THR225     -0.1218
     85  CA        -1.6790    3.5850    7.9550 C.3   225  THR225      0.1862
     86  C         -3.1480    3.4800    8.2960 C.2   225  THR225      0.2287
     87  O         -3.5070    2.6480    9.1450 O.2   225  THR225     -0.2866
     88  CB        -1.0310    2.2260    8.3260 C.3   225  THR225      0.1770
     89  OG1        0.3750    2.2950    8.0440 O.3   225  THR225     -0.2211
     90  CG2       -1.6240    1.1080    7.4880 C.3   225  THR225      0.0375
     91  N         -6.9980    2.2520    8.0360 N.3   227  HIS227     -0.1241
     92  CA        -7.7860    1.1380    7.5040 C.3   227  HIS227      0.1621
     93  C         -9.2640    1.5380    7.5510 C.2   227  HIS227      0.2264
     94  O         -9.6360    2.2340    8.5070 O.2   227  HIS227     -0.2867
     95  CB        -7.5550   -0.1670    8.2540 C.3   227  HIS227      0.0745
     96  CG        -6.1760   -0.4720    8.7460 C.ar  227  HIS227      0.0817
     97  ND1       -5.2320   -1.1790    8.0420 N.ar  227  HIS227     -0.2268
     98  CD2       -5.5610   -0.1640    9.9170 C.ar  227  HIS227      0.1154
     99  CE1       -4.1100   -1.2870    8.7350 C.ar  227  HIS227      0.1986
    100  NE2       -4.2840   -0.6780    9.8900 N.ar  227  HIS227     -0.2212
    101  N         -5.7790  -10.8800   11.6410 N.3   245  THR245     -0.1203
    102  CA        -4.8100  -11.7670   12.2310 C.3   245  THR245      0.1994
    103  C         -5.4050  -12.8910   13.0700 C.2   245  THR245      0.2617
    104  O         -4.8330  -13.9970   13.0770 O.2   245  THR245     -0.2717
    105  CB        -3.8240  -10.9850   13.1370 C.3   245  THR245      0.1784
    106  OG1       -4.3790   -9.7130   13.4910 O.3   245  THR245     -0.2211
    107  CG2       -2.5280  -10.7020   12.3930 C.3   245  THR245      0.0376
    108  N         -6.5030  -12.6230   13.7760 N.am  246  TYR246     -0.1975
    109  CA        -7.0580  -13.6500   14.6570 C.3   246  TYR246      0.1639
    110  C         -7.9560  -14.6360   13.9260 C.2   246  TYR246      0.2290
    111  O         -8.2830  -15.6880   14.4820 O.2   246  TYR246     -0.2864
    112  CB        -7.8390  -12.9950   15.8060 C.3   246  TYR246      0.0560
    113  CG        -6.9630  -12.0560   16.6120 C.ar  246  TYR246     -0.0198
    114  CD1       -5.9290  -12.5480   17.3940 C.ar  246  TYR246     -0.0009
    115  CD2       -7.1810  -10.6860   16.5800 C.ar  246  TYR246     -0.0009
    116  CE1       -5.1250  -11.6990   18.1310 C.ar  246  TYR246      0.0417
    117  CE2       -6.3880   -9.8190   17.3090 C.ar  246  TYR246      0.0417
    118  CZ        -5.3680  -10.3410   18.0810 C.ar  246  TYR246      0.1957
    119  OH        -4.5660   -9.5050   18.8120 O.3   246  TYR246     -0.2866
    120  N         -7.6460  -13.6390    7.0380 N.3   250  ARG250     -0.1245
    121  CA        -7.4120  -12.2270    7.3460 C.3   250  ARG250      0.1563
    122  C         -8.2520  -11.3130    6.4620 C.2   250  ARG250      0.2260
    123  O         -8.5190  -10.1650    6.8240 O.2   250  ARG250     -0.2867
    124  CB        -5.9250  -11.9140    7.2270 C.3   250  ARG250      0.0307
    125  CG        -5.5310  -10.5280    6.7590 C.3   250  ARG250      0.0489
    126  CD        -4.0170  -10.3800    6.6910 C.3   250  ARG250      0.2205
    127  NE        -3.5420   -9.1120    7.2430 N.pl3 250  ARG250     -0.0865
    128  CZ        -2.9160   -8.9570    8.3980 C.cat 250  ARG250      0.5346
    129  NH1       -2.6640  -10.0150    9.1650 N.pl3 250  ARG250      0.1354
    130  NH2       -2.5190   -7.7640    8.8220 N.pl3 250  ARG250      0.1354
    131  N         -7.5070   -5.2140    7.0370 N.3   257  ALA257     -0.1231
    132  CA        -6.4850   -5.3840    8.0630 C.3   257  ALA257      0.1694
    133  C         -5.1220   -4.8940    7.6160 C.2   257  ALA257      0.2592
    134  O         -4.1450   -4.8750    8.3740 O.2   257  ALA257     -0.2718
    135  CB        -6.3940   -6.8570    8.4340 C.3   257  ALA257      0.0304
    136  N         -5.0080   -4.5010    6.3420 N.am  258  ASN258     -0.1974
    137  CA        -3.6590   -4.0920    5.9330 C.3   258  ASN258      0.1688
    138  C         -3.5860   -2.5780    5.7560 C.2   258  ASN258      0.2292
    139  O         -2.5220   -2.0390    6.0750 O.2   258  ASN258     -0.2864
    140  CB        -3.2170   -4.7920    4.6480 C.3   258  ASN258      0.1181
    141  CG        -2.8790   -6.2500    4.8890 C.2   258  ASN258      0.2629
    142  OD1       -2.7040   -6.6650    6.0370 O.2   258  ASN258     -0.2716
    143  ND2       -2.7970   -6.9740    3.7750 N.am  258  ASN258     -0.0877
    144  N         -0.5110    2.0350    3.6190 N.3   261  ASP261     -0.1239
    145  CA         0.5280    2.3890    4.5650 C.3   261  ASP261      0.1674
    146  C          1.5860    3.2720    3.9200 C.2   261  ASP261      0.2266
    147  O          2.0090    3.0890    2.7840 O.2   261  ASP261     -0.2867
    148  CB         1.2500    1.1570    5.1450 C.3   261  ASP261      0.1410
    149  CG         1.7730    0.3070    4.0010 C.2   261  ASP261      0.3668
    150  OD1        0.9250   -0.1020    3.1780 O.co2 261  ASP261     -0.2456
    151  OD2        3.0020    0.0850    3.9100 O.co2 261  ASP261     -0.2456
    152  N         10.1950    1.2160    3.7440 N.3   266  ARG266     -0.1245
    153  CA         9.4790    0.4010    2.7870 C.3   266  ARG266      0.1563
    154  C          9.2080    1.1350    1.4710 C.2   266  ARG266      0.2260
    155  O          9.1310    0.4670    0.4380 O.2   266  ARG266     -0.2867
    156  CB         8.1340   -0.0250    3.3790 C.3   266  ARG266      0.0307
    157  CG         7.3670   -0.9940    2.4810 C.3   266  ARG266      0.0489
    158  CD         6.1310   -1.4970    3.2280 C.3   266  ARG266      0.2205
    159  NE         5.7150   -2.7820    2.6800 N.pl3 266  ARG266     -0.0865
    160  CZ         4.4780   -3.1820    2.4560 C.cat 266  ARG266      0.5346
    161  NH1        3.4320   -2.4120    2.7250 N.pl3 266  ARG266      0.1354
    162  NH2        4.2900   -4.3940    1.9460 N.pl3 266  ARG266      0.1354
    163  N          0.8330   -7.0570   -3.1590 N.3   337  ASP337     -0.1239
    164  CA        -0.0070   -7.4350   -2.0440 C.3   337  ASP337      0.1674
    165  C         -1.4640   -7.5280   -2.4960 C.2   337  ASP337      0.2266
    166  O         -1.7800   -6.9400   -3.5330 O.2   337  ASP337     -0.2867
    167  CB         0.0880   -6.3980   -0.9280 C.3   337  ASP337      0.1410
    168  CG         1.1220   -6.7050    0.1290 C.2   337  ASP337      0.3668
    169  OD1        0.7530   -7.0030    1.2850 O.co2 337  ASP337     -0.2456
    170  OD2        2.3180   -6.6380   -0.2020 O.co2 337  ASP337     -0.2456
    171  N          3.1370   -3.0010   22.8720 N.3   365  TRP365     -0.1241
    172  CA         2.9770   -4.4150   22.6020 C.3   365  TRP365      0.1605
    173  C          4.0950   -4.9320   21.6850 C.2   365  TRP365      0.2264
    174  O          4.8360   -4.1820   21.0410 O.2   365  TRP365     -0.2867
    175  CB         1.6280   -4.7470   21.9440 C.3   365  TRP365      0.0550
    176  CG         1.3380   -3.9460   20.7160 C.ar  365  TRP365      0.0003
    177  CD1        1.1270   -2.5970   20.6890 C.ar  365  TRP365      0.0946
    178  CD2        1.2230   -4.3920   19.3570 C.ar  365  TRP365      0.0152
    179  NE1        0.8920   -2.1830   19.4160 N.ar  365  TRP365     -0.2442
    180  CE2        0.9420   -3.2580   18.5700 C.ar  365  TRP365      0.0810
    181  CE3        1.3240   -5.6260   18.7170 C.ar  365  TRP365      0.0012
    182  CZ2        0.7620   -3.3040   17.1900 C.ar  365  TRP365      0.0191
    183  CZ3        1.1470   -5.6810   17.3460 C.ar  365  TRP365      0.0001
    184  CH2        0.8700   -4.5340   16.5930 C.ar  365  TRP365      0.0015
    185  N          4.4390   -8.6930   19.0060 N.3   367  ASP367     -0.1239
    186  CA         3.6750   -9.5900   18.1480 C.3   367  ASP367      0.1674
    187  C          4.0110  -11.0580   18.3860 C.2   367  ASP367      0.2266
    188  O          5.1580  -11.4620   18.2350 O.2   367  ASP367     -0.2867
    189  CB         3.9540   -9.2050   16.6960 C.3   367  ASP367      0.1410
    190  CG         3.0290   -9.7120   15.6280 C.2   367  ASP367      0.3668
    191  OD1        2.1870  -10.6240   15.8000 O.co2 367  ASP367     -0.2456
    192  OD2        3.1450   -9.1600   14.5090 O.co2 367  ASP367     -0.2456
    193  N          3.3400  -12.4960   14.4730 N.3   370  ALA370     -0.1245
    194  CA         4.2460  -12.1530   13.3810 C.3   370  ALA370      0.1562
    195  C          5.5180  -11.4920   13.8810 C.2   370  ALA370      0.2260
    196  O          6.3630  -11.1170   13.0620 O.2   370  ALA370     -0.2867
    197  CB         3.5230  -11.2730   12.3690 C.3   370  ALA370      0.0290
    198  N          6.7440   -6.8880   10.1610 N.3   374  TRP374     -0.1241
    199  CA         6.0140   -6.1550    9.1370 C.3   374  TRP374      0.1605
    200  C          6.2090   -4.6400    9.2620 C.2   374  TRP374      0.2264
    201  O          5.9840   -3.9350    8.2790 O.2   374  TRP374     -0.2867
    202  CB         4.5190   -6.4690    9.1780 C.3   374  TRP374      0.0550
    203  CG         3.8700   -6.3750   10.5240 C.ar  374  TRP374      0.0003
    204  CD1        3.6220   -7.4270   11.3610 C.ar  374  TRP374      0.0946
    205  CD2        3.3870   -5.2120   11.1980 C.ar  374  TRP374      0.0152
    206  NE1        3.0180   -6.9970   12.5130 N.ar  374  TRP374     -0.2442
    207  CE2        2.8610   -5.6320   12.4360 C.ar  374  TRP374      0.0810
    208  CE3        3.3420   -3.8510   10.8820 C.ar  374  TRP374      0.0012
    209  CZ2        2.3020   -4.7490   13.3540 C.ar  374  TRP374      0.0191
    210  CZ3        2.7880   -2.9740   11.7910 C.ar  374  TRP374      0.0001
    211  CH2        2.2760   -3.4230   13.0110 C.ar  374  TRP374      0.0015
    212  N          9.4250   -8.5290    5.2410 N.3   379  TYR379     -0.1228
    213  CA         8.2140   -9.2870    5.5180 C.3   379  TYR379      0.1721
    214  C          7.3590   -9.5020    4.2770 C.2   379  TYR379      0.2437
    215  O          7.1190   -8.5640    3.5320 O.2   379  TYR379     -0.2733
    216  CB         7.3690   -8.5540    6.5690 C.3   379  TYR379      0.0547
    217  CG         6.1300   -9.3070    6.9880 C.ar  379  TYR379     -0.0200
    218  CD1        6.1990  -10.2850    7.9700 C.ar  379  TYR379     -0.0009
    219  CD2        4.8910   -9.0530    6.4180 C.ar  379  TYR379     -0.0009
    220  CE1        5.0590  -10.9660    8.3460 C.ar  379  TYR379      0.0417
    221  CE2        3.7470   -9.7320    6.7890 C.ar  379  TYR379      0.0417
    222  CZ         3.8440  -10.7000    7.7650 C.ar  379  TYR379      0.1957
    223  OH         2.7230  -11.3990    8.1670 O.3   379  TYR379     -0.2866
    224  N          6.8640  -10.7170    4.1020 N.am  380  PRO380     -0.2729
    225  CA         7.3770  -11.8830    4.8220 C.3   380  PRO380      0.1401
    226  C          8.7300  -12.3230    4.2610 C.2   380  PRO380      0.2269
    227  O          9.0410  -12.0900    3.0900 O.2   380  PRO380     -0.2865
    228  CB         6.2930  -12.9260    4.5920 C.3   380  PRO380      0.0296
    229  CG         5.1190  -12.2100    3.9980 C.3   380  PRO380      0.0237
    230  CD         5.7130  -11.0510    3.2390 C.3   380  PRO380      0.0939
    231  N         10.9850   -3.1380    5.3200 N.3   391  ARG391     -0.1245
    232  CA        10.2240   -2.1730    6.0840 C.3   391  ARG391      0.1563
    233  C         11.0900   -1.5770    7.2000 C.2   391  ARG391      0.2260
    234  O         10.8660   -0.4200    7.5670 O.2   391  ARG391     -0.2867
    235  CB         8.9560   -2.8010    6.6780 C.3   391  ARG391      0.0307
    236  CG         8.0250   -3.4180    5.6400 C.3   391  ARG391      0.0489
    237  CD         7.7680   -4.8750    5.9650 C.3   391  ARG391      0.2205
    238  NE         7.0470   -5.5850    4.9190 N.pl3 391  ARG391     -0.0865
    239  CZ         5.7640   -5.8990    4.8900 C.cat 391  ARG391      0.5346
    240  NH1        4.9360   -5.5830    5.8750 N.pl3 391  ARG391      0.1354
    241  NH2        5.2850   -6.5540    3.8390 N.pl3 391  ARG391      0.1354
@<TRIPOS>BOND
     1   166   165    2
     2   163   164    1
     3   165   164    1
     4   164   167    1
     5   167   168    1
     6   170   168   ar
     7   168   169   ar
     8   155   154    2
     9   154   153    1
    10   162   160    1
    11   160   159    2
    12   160   161    1
    13   157   158    1
    14   157   156    1
    15   159   158    1
    16   147   146    2
    17   153   156    1
    18   153   152    1
    19   227   226    2
    20   150   149   ar
    21   230   229    1
    22   230   224    1
    23   215   214    2
    24   144   145    1
    25   143   141   am
    26   241   239    1
    27   151   149   ar
    28   146   145    1
    29   229   228    1
    30   149   148    1
    31   224   214   am
    32   224   225    1
    33   226   225    1
    34   214   213    1
    35   145   148    1
    36   228   225    1
    37   140   141    1
    38   140   137    1
    39   141   142    2
    40   239   238    2
    41   239   240    1
    42   238   237    1
    43   212   213    1
    44   231   232    1
    45   213   216    1
    46   236   237    1
    47   236   235    1
    48   138   137    1
    49   138   139    2
    50   137   136    1
    51   232   235    1
    52   232   233    1
    53   136   133   am
    54   219   221   ar
    55   219   217   ar
    56   122   123    2
    57   122   121    1
    58   216   217    1
    59   126   125    1
    60   126   127    1
    61   125   124    1
    62   221   222   ar
    63   217   218   ar
    64   131   132    1
    65   120   121    1
    66   233   234    2
    67   124   121    1
    68   127   128    2
    69    90    88    1
    70    92    93    1
    71    92    91    1
    72    92    95    1
    73    93    94    2
    74   133   132    1
    75   133   134    2
    76   222   223    1
    77   222   220   ar
    78    85    86    1
    79    85    88    1
    80    85    84    1
    81   218   220   ar
    82    97    99   ar
    83    97    96   ar
    84    89    88    1
    85   132   135    1
    86    95    96    1
    87   201   200    2
    88    86    87    2
    89   128   130    1
    90   128   129    1
    91    99   100   ar
    92    96    98   ar
    93   199   202    1
    94   199   200    1
    95   199   198    1
    96   202   203    1
    97   100    98   ar
    98   203   205   ar
    99   203   204   ar
   100    61    60    2
   101    57    55   am
   102   208   205   ar
   103   208   210   ar
   104    70    69    2
   105   205   207   ar
   106   204   206   ar
   107    56    55    2
   108   101   102    1
   109    58    59    1
   110    55    54    1
   111    60    59    1
   112   210   211   ar
   113    67    68    1
   114    69    68    1
   115   102   103    1
   116   102   105    1
   117    74    72   ar
   118   197   194    1
   119   107   105    1
   120   207   206   ar
   121   207   209   ar
   122    71    68    1
   123    71    72    1
   124    49    50    1
   125    59    62    1
   126    50    51    1
   127    50    53    1
   128    72    73   ar
   129    52    51    2
   130   211   209   ar
   131   196   195    2
   132   103   104    2
   133   103   108   am
   134    54    53    1
   135    83    81   ar
   136    65    64   ar
   137    62    63    1
   138   105   106    1
   139    80    79    1
   140    80    81    1
   141    78    77    2
   142   194   195    1
   143   194   193    1
   144    64    63    1
   145    64    66   ar
   146    79    76    1
   147   108   109    1
   148    81    82   ar
   149    44    43    2
   150   110   111    2
   151   110   109    1
   152    43    42    1
   153    75    76    1
   154    77    76    1
   155   192   190   ar
   156   109   112    1
   157    42    45    1
   158    42    41    1
   159   190   191   ar
   160   190   189    1
   161    47    46   ar
   162    45    46    1
   163   112   113    1
   164    21    18    1
   165    21    22    1
   166    46    48   ar
   167    18    19    1
   168    18    17    1
   169   115   113   ar
   170   115   117   ar
   171   184   182   ar
   172   184   183   ar
   173   113   114   ar
   174   189   186    1
   175    22    24   ar
   176    22    23   ar
   177    24    26   ar
   178    19    20    2
   179   182   180   ar
   180   117   118   ar
   181   183   181   ar
   182   114   116   ar
   183    23    25   ar
   184    26    27   ar
   185   118   116   ar
   186   118   119    1
   187   186   187    1
   188   186   185    1
   189   188   187    2
   190    40    39    1
   191   180   178   ar
   192   180   179   ar
   193    16    13    1
   194    25    27   ar
   195    27    28    1
   196   181   178   ar
   197    13    14    1
   198    13    12    1
   199   178   176   ar
   200   179   177   ar
   201    39    38   ar
   202    39    37   ar
   203    14    15    2
   204    38    36   ar
   205    37    35   ar
   206    31    32    2
   207    31    30    1
   208    36    34   ar
   209   177   176   ar
   210   176   175    1
   211    35    34   ar
   212   174   173    2
   213    34    33    1
   214   173   172    1
   215    30    33    1
   216    30    29    1
   217   175   172    1
   218    10     9    1
   219   172   171    1
   220     7     8    1
   221     7     6    1
   222     9     8    2
   223     9    11    1
   224     6     5    1
   225     5     2    1
   226     2     3    1
   227     2     1    1
   228     3     4    2
